<?xml version="1.0" encoding="UTF-8"?>
<graphml xmlns="http://graphml.graphdrawing.org/xmlns"
         xmlns:xsi="http://www.w3.org/2001/XMLSchema-instance"
         xsi:schemaLocation="http://graphml.graphdrawing.org/xmlns
         http://graphml.graphdrawing.org/xmlns/1.0/graphml.xsd">
<!-- Created by igraph -->
  <key id="v_name" for="node" attr.name="name" attr.type="string"/>
  <key id="v_description" for="node" attr.name="description" attr.type="string"/>
  <key id="v_database" for="node" attr.name="database" attr.type="string"/>
  <key id="v_pValue" for="node" attr.name="pValue" attr.type="double"/>
  <key id="v_pp" for="node" attr.name="pp" attr.type="double"/>
  <key id="v_size" for="node" attr.name="size" attr.type="double"/>
  <key id="v_nSignificant" for="node" attr.name="nSignificant" attr.type="double"/>
  <key id="v_setRank" for="node" attr.name="setRank" attr.type="double"/>
  <key id="v_pSetRank" for="node" attr.name="pSetRank" attr.type="double"/>
  <key id="v_correctedPValue" for="node" attr.name="correctedPValue" attr.type="double"/>
  <key id="v_adjustedPValue" for="node" attr.name="adjustedPValue" attr.type="double"/>
  <key id="e_type" for="edge" attr.name="type" attr.type="string"/>
  <key id="e_source_pDiff" for="edge" attr.name="source_pDiff" attr.type="double"/>
  <key id="e_source_ppDiff" for="edge" attr.name="source_ppDiff" attr.type="double"/>
  <key id="e_source_diffSize" for="edge" attr.name="source_diffSize" attr.type="double"/>
  <key id="e_sink_pDiff" for="edge" attr.name="sink_pDiff" attr.type="double"/>
  <key id="e_sink_ppDiff" for="edge" attr.name="sink_ppDiff" attr.type="double"/>
  <key id="e_sink_diffSize" for="edge" attr.name="sink_diffSize" attr.type="double"/>
  <key id="e_deltaP" for="edge" attr.name="deltaP" attr.type="double"/>
  <key id="e_intersectionSize" for="edge" attr.name="intersectionSize" attr.type="double"/>
  <key id="e_pIntersection" for="edge" attr.name="pIntersection" attr.type="double"/>
  <key id="e_ppIntersection" for="edge" attr.name="ppIntersection" attr.type="double"/>
  <key id="e_jaccard" for="edge" attr.name="jaccard" attr.type="double"/>
  <key id="e_significantJaccard" for="edge" attr.name="significantJaccard" attr.type="double"/>
  <key id="e_discardSource" for="edge" attr.name="discardSource" attr.type="boolean"/>
  <key id="e_discardSink" for="edge" attr.name="discardSink" attr.type="boolean"/>
  <graph id="G" edgedefault="directed">
    <node id="n0">
      <data key="v_name">mmu00190</data>
      <data key="v_description">Oxidative phosphorylation - Mus musculus (house mouse)</data>
      <data key="v_database">KEGG</data>
      <data key="v_pValue">9.7360580993302e-24</data>
      <data key="v_pp">23.0116168431445</data>
      <data key="v_size">127</data>
      <data key="v_nSignificant">0</data>
      <data key="v_setRank">0.0232179306429433</data>
      <data key="v_pSetRank">8.37540973712899e-07</data>
      <data key="v_correctedPValue">9.7360580993302e-24</data>
      <data key="v_adjustedPValue">1.65512987688613e-22</data>
    </node>
    <node id="n1">
      <data key="v_name">mmu00232</data>
      <data key="v_description">Caffeine metabolism - Mus musculus (house mouse)</data>
      <data key="v_database">KEGG</data>
      <data key="v_pValue">0.00304321156364751</data>
      <data key="v_pp">2.993392137449</data>
      <data key="v_size">3</data>
      <data key="v_nSignificant">0</data>
      <data key="v_setRank">0.00307260709169124</data>
      <data key="v_pSetRank">1</data>
      <data key="v_correctedPValue">0.00101533150573663</data>
      <data key="v_adjustedPValue">0.00828720533072356</data>
    </node>
    <node id="n2">
      <data key="v_name">mmu00512</data>
      <data key="v_description">Mucin type O-glycan biosynthesis - Mus musculus (house mouse)</data>
      <data key="v_database">KEGG</data>
      <data key="v_pValue">0.00525079367853225</data>
      <data key="v_pp">2.27977504627881</data>
      <data key="v_size">29</data>
      <data key="v_nSignificant">0</data>
      <data key="v_setRank">0.00166086869821148</data>
      <data key="v_pSetRank">1</data>
      <data key="v_correctedPValue">0.00525079367853225</data>
      <data key="v_adjustedPValue">0.0157523810355967</data>
    </node>
    <node id="n3">
      <data key="v_name">mmu00920</data>
      <data key="v_description">Sulfur metabolism - Mus musculus (house mouse)</data>
      <data key="v_database">KEGG</data>
      <data key="v_pValue">0.0025803862413272</data>
      <data key="v_pp">2.58831528243897</data>
      <data key="v_size">11</data>
      <data key="v_nSignificant">0</data>
      <data key="v_setRank">0.00307260709169124</data>
      <data key="v_pSetRank">1</data>
      <data key="v_correctedPValue">0.0025803862413272</data>
      <data key="v_adjustedPValue">0.0124284243810219</data>
    </node>
    <node id="n4">
      <data key="v_name">mmu01212</data>
      <data key="v_description">Fatty acid metabolism - Mus musculus (house mouse)</data>
      <data key="v_database">KEGG</data>
      <data key="v_pValue">3.41194875221619e-05</data>
      <data key="v_pp">5.09662092220917</data>
      <data key="v_size">59</data>
      <data key="v_nSignificant">0</data>
      <data key="v_setRank">0.00166086869821148</data>
      <data key="v_pSetRank">1</data>
      <data key="v_correctedPValue">8.00532702209819e-06</data>
      <data key="v_adjustedPValue">0.000112074578309375</data>
    </node>
    <node id="n5">
      <data key="v_name">mmu01523</data>
      <data key="v_description">Antifolate resistance - Mus musculus (house mouse)</data>
      <data key="v_database">KEGG</data>
      <data key="v_pValue">0.000564360382092874</data>
      <data key="v_pp">3.24844348117275</data>
      <data key="v_size">27</data>
      <data key="v_nSignificant">0</data>
      <data key="v_setRank">0.00166086869821148</data>
      <data key="v_pSetRank">1</data>
      <data key="v_correctedPValue">0.000564360382092874</data>
      <data key="v_adjustedPValue">0.00677232458511449</data>
    </node>
    <node id="n6">
      <data key="v_name">mmu01524</data>
      <data key="v_description">Platinum drug resistance - Mus musculus (house mouse)</data>
      <data key="v_database">KEGG</data>
      <data key="v_pValue">2.73312245015656e-07</data>
      <data key="v_pp">3.09274857213665</data>
      <data key="v_size">77</data>
      <data key="v_nSignificant">0</data>
      <data key="v_setRank">0.00243081025957333</data>
      <data key="v_pSetRank">1</data>
      <data key="v_correctedPValue">0.000807702501398717</data>
      <data key="v_adjustedPValue">1.65512987688613e-22</data>
    </node>
    <node id="n7">
      <data key="v_name">mmu04020</data>
      <data key="v_description">Calcium signaling pathway - Mus musculus (house mouse)</data>
      <data key="v_database">KEGG</data>
      <data key="v_pValue">4.89165551502995e-05</data>
      <data key="v_pp">3.20107195487458</data>
      <data key="v_size">210</data>
      <data key="v_nSignificant">0</data>
      <data key="v_setRank">0.00177851356433479</data>
      <data key="v_pSetRank">1</data>
      <data key="v_correctedPValue">0.000629401893514012</data>
      <data key="v_adjustedPValue">1.65512987688613e-22</data>
    </node>
    <node id="n8">
      <data key="v_name">mmu04070</data>
      <data key="v_description">Phosphatidylinositol signaling system - Mus musculus (house mouse)</data>
      <data key="v_database">KEGG</data>
      <data key="v_pValue">7.74456638562706e-05</data>
      <data key="v_pp">3.33759274374663</data>
      <data key="v_size">93</data>
      <data key="v_nSignificant">0</data>
      <data key="v_setRank">0.00166086869821148</data>
      <data key="v_pSetRank">1</data>
      <data key="v_correctedPValue">0.000459628824144977</data>
      <data key="v_adjustedPValue">1.65512987688613e-22</data>
    </node>
    <node id="n9">
      <data key="v_name">mmu04110</data>
      <data key="v_description">Cell cycle - Mus musculus (house mouse)</data>
      <data key="v_database">KEGG</data>
      <data key="v_pValue">1.40278357035152e-06</data>
      <data key="v_pp">3.81229009967409</data>
      <data key="v_size">154</data>
      <data key="v_nSignificant">0</data>
      <data key="v_setRank">0.00228128138253499</data>
      <data key="v_pSetRank">1</data>
      <data key="v_correctedPValue">0.000154067097301129</data>
      <data key="v_adjustedPValue">1.65512987688613e-22</data>
    </node>
    <node id="n10">
      <data key="v_name">mmu04136</data>
      <data key="v_description">Autophagy - other - Mus musculus (house mouse)</data>
      <data key="v_database">KEGG</data>
      <data key="v_pValue">1.223967548298e-05</data>
      <data key="v_pp">2.8847929632313</data>
      <data key="v_size">31</data>
      <data key="v_nSignificant">0</data>
      <data key="v_setRank">0.00184612438842528</data>
      <data key="v_pSetRank">1</data>
      <data key="v_correctedPValue">0.00130378817193225</data>
      <data key="v_adjustedPValue">1.65512987688613e-22</data>
    </node>
    <node id="n11">
      <data key="v_name">mmu04142</data>
      <data key="v_description">Lysosome - Mus musculus (house mouse)</data>
      <data key="v_database">KEGG</data>
      <data key="v_pValue">2.82677477497874e-07</data>
      <data key="v_pp">4.38618067363088</data>
      <data key="v_size">126</data>
      <data key="v_nSignificant">0</data>
      <data key="v_setRank">0.00216289891636235</data>
      <data key="v_pSetRank">1</data>
      <data key="v_correctedPValue">4.10978711647755e-05</data>
      <data key="v_adjustedPValue">1.65512987688613e-22</data>
    </node>
    <node id="n12">
      <data key="v_name">mmu04211</data>
      <data key="v_description">Longevity regulating pathway - Mus musculus (house mouse)</data>
      <data key="v_database">KEGG</data>
      <data key="v_pValue">3.63474730828286e-05</data>
      <data key="v_pp">2.42964450096576</data>
      <data key="v_size">86</data>
      <data key="v_nSignificant">0</data>
      <data key="v_setRank">0.00170128854371027</data>
      <data key="v_pSetRank">1</data>
      <data key="v_correctedPValue">0.0037183947999998</data>
      <data key="v_adjustedPValue">1.65512987688613e-22</data>
    </node>
    <node id="n13">
      <data key="v_name">mmu04216</data>
      <data key="v_description">Ferroptosis - Mus musculus (house mouse)</data>
      <data key="v_database">KEGG</data>
      <data key="v_pValue">0.00136233902228032</data>
      <data key="v_pp">2.86571480344815</data>
      <data key="v_size">39</data>
      <data key="v_nSignificant">0</data>
      <data key="v_setRank">0.00166086869821148</data>
      <data key="v_pSetRank">1</data>
      <data key="v_correctedPValue">0.00136233902228032</data>
      <data key="v_adjustedPValue">0.00828720533072356</data>
    </node>
    <node id="n14">
      <data key="v_name">mmu04330</data>
      <data key="v_description">Notch signaling pathway - Mus musculus (house mouse)</data>
      <data key="v_database">KEGG</data>
      <data key="v_pValue">0.000368937182919109</data>
      <data key="v_pp">2.19223589470405</data>
      <data key="v_size">60</data>
      <data key="v_nSignificant">0</data>
      <data key="v_setRank">0.00166086869821148</data>
      <data key="v_pSetRank">1</data>
      <data key="v_correctedPValue">0.00642338724942644</data>
      <data key="v_adjustedPValue">1.65512987688613e-22</data>
    </node>
    <node id="n15">
      <data key="v_name">mmu04510</data>
      <data key="v_description">Focal adhesion - Mus musculus (house mouse)</data>
      <data key="v_database">KEGG</data>
      <data key="v_pValue">2.0333253422805e-07</data>
      <data key="v_pp">3.16906976360236</data>
      <data key="v_size">198</data>
      <data key="v_nSignificant">0</data>
      <data key="v_setRank">0.00457839019932216</data>
      <data key="v_pSetRank">1</data>
      <data key="v_correctedPValue">0.000677532662304496</data>
      <data key="v_adjustedPValue">1.65512987688613e-22</data>
    </node>
    <node id="n16">
      <data key="v_name">mmu04530</data>
      <data key="v_description">Tight junction - Mus musculus (house mouse)</data>
      <data key="v_database">KEGG</data>
      <data key="v_pValue">4.91729217359505e-08</data>
      <data key="v_pp">4.5293954445666</data>
      <data key="v_size">153</data>
      <data key="v_nSignificant">0</data>
      <data key="v_setRank">0.0025402775661794</data>
      <data key="v_pSetRank">1</data>
      <data key="v_correctedPValue">2.95532028964761e-05</data>
      <data key="v_adjustedPValue">1.65512987688613e-22</data>
    </node>
    <node id="n17">
      <data key="v_name">mmu04668</data>
      <data key="v_description">TNF signaling pathway - Mus musculus (house mouse)</data>
      <data key="v_database">KEGG</data>
      <data key="v_pValue">4.02050035694737e-05</data>
      <data key="v_pp">2.55121501609139</data>
      <data key="v_size">110</data>
      <data key="v_nSignificant">0</data>
      <data key="v_setRank">0.00183617627525177</data>
      <data key="v_pSetRank">1</data>
      <data key="v_correctedPValue">0.00281050902297734</data>
      <data key="v_adjustedPValue">1.65512987688613e-22</data>
    </node>
    <node id="n18">
      <data key="v_name">mmu04932</data>
      <data key="v_description">Non-alcoholic fatty liver disease - Mus musculus (house mouse)</data>
      <data key="v_database">KEGG</data>
      <data key="v_pValue">7.70728709394788e-18</data>
      <data key="v_pp">6.53449381807226</data>
      <data key="v_size">146</data>
      <data key="v_nSignificant">0</data>
      <data key="v_setRank">0.0325859856549497</data>
      <data key="v_pSetRank">1.82889267175051e-10</data>
      <data key="v_correctedPValue">2.9208293362072e-07</data>
      <data key="v_adjustedPValue">1.65512987688613e-22</data>
    </node>
    <node id="n19">
      <data key="v_name">mmu04979</data>
      <data key="v_description">Cholesterol metabolism - Mus musculus (house mouse)</data>
      <data key="v_database">KEGG</data>
      <data key="v_pValue">0.00102261328845153</data>
      <data key="v_pp">2.99028856808936</data>
      <data key="v_size">48</data>
      <data key="v_nSignificant">0</data>
      <data key="v_setRank">0.00166086869821148</data>
      <data key="v_pSetRank">1</data>
      <data key="v_correctedPValue">0.00102261328845153</data>
      <data key="v_adjustedPValue">0.00828720533072356</data>
    </node>
    <node id="n20">
      <data key="v_name">mmu05132</data>
      <data key="v_description">Salmonella infection - Mus musculus (house mouse)</data>
      <data key="v_database">KEGG</data>
      <data key="v_pValue">4.81821247853757e-13</data>
      <data key="v_pp">8.95901273597763</data>
      <data key="v_size">246</data>
      <data key="v_nSignificant">0</data>
      <data key="v_setRank">0.012186488352978</data>
      <data key="v_pSetRank">0.0871551404079395</data>
      <data key="v_correctedPValue">1.09897361082006e-09</data>
      <data key="v_adjustedPValue">1.65512987688613e-22</data>
    </node>
    <node id="n21">
      <data key="v_name">mmu05135</data>
      <data key="v_description">Yersinia infection - Mus musculus (house mouse)</data>
      <data key="v_database">KEGG</data>
      <data key="v_pValue">8.08914040162525e-09</data>
      <data key="v_pp">3.80067903255687</data>
      <data key="v_size">130</data>
      <data key="v_nSignificant">0</data>
      <data key="v_setRank">0.00662997879200208</data>
      <data key="v_pSetRank">1</data>
      <data key="v_correctedPValue">0.000158241710024955</data>
      <data key="v_adjustedPValue">1.65512987688613e-22</data>
    </node>
    <node id="n22">
      <data key="v_name">mmu05160</data>
      <data key="v_description">Hepatitis C - Mus musculus (house mouse)</data>
      <data key="v_database">KEGG</data>
      <data key="v_pValue">4.67993543235128e-09</data>
      <data key="v_pp">4.78738707338028</data>
      <data key="v_size">138</data>
      <data key="v_nSignificant">0</data>
      <data key="v_setRank">0.00728928438315971</data>
      <data key="v_pSetRank">1</data>
      <data key="v_correctedPValue">1.63159710709605e-05</data>
      <data key="v_adjustedPValue">1.65512987688613e-22</data>
    </node>
    <node id="n23">
      <data key="v_name">mmu05171</data>
      <data key="v_description">Coronavirus disease - COVID-19 - Mus musculus (house mouse)</data>
      <data key="v_database">KEGG</data>
      <data key="v_pValue">2.07205884475215e-20</data>
      <data key="v_pp">3.45610414741035</data>
      <data key="v_size">214</data>
      <data key="v_nSignificant">0</data>
      <data key="v_setRank">0.0270650899069608</data>
      <data key="v_pSetRank">2.26726039554195e-08</data>
      <data key="v_correctedPValue">0.000349861257343184</data>
      <data key="v_adjustedPValue">1.65512987688613e-22</data>
    </node>
    <node id="n24">
      <data key="v_name">mmu05203</data>
      <data key="v_description">Viral carcinogenesis - Mus musculus (house mouse)</data>
      <data key="v_database">KEGG</data>
      <data key="v_pValue">8.30993440021034e-06</data>
      <data key="v_pp">3.44516890901945</data>
      <data key="v_size">207</data>
      <data key="v_nSignificant">0</data>
      <data key="v_setRank">0.00506244296460181</data>
      <data key="v_pSetRank">1</data>
      <data key="v_correctedPValue">0.000358782367216215</data>
      <data key="v_adjustedPValue">1.65512987688613e-22</data>
    </node>
    <node id="n25">
      <data key="v_name">mmu05205</data>
      <data key="v_description">Proteoglycans in cancer - Mus musculus (house mouse)</data>
      <data key="v_database">KEGG</data>
      <data key="v_pValue">1.87118260643544e-07</data>
      <data key="v_pp">2.90628417201545</data>
      <data key="v_size">192</data>
      <data key="v_nSignificant">0</data>
      <data key="v_setRank">0.00365295582806632</data>
      <data key="v_pSetRank">1</data>
      <data key="v_correctedPValue">0.00124084012267934</data>
      <data key="v_adjustedPValue">1.65512987688613e-22</data>
    </node>
    <node id="n26">
      <data key="v_name">mmu05206</data>
      <data key="v_description">MicroRNAs in cancer - Mus musculus (house mouse)</data>
      <data key="v_database">KEGG</data>
      <data key="v_pValue">3.49598016484056e-08</data>
      <data key="v_pp">3.98642944004482</data>
      <data key="v_size">160</data>
      <data key="v_nSignificant">0</data>
      <data key="v_setRank">0.00350900266915865</data>
      <data key="v_pSetRank">1</data>
      <data key="v_correctedPValue">0.000103174069304394</data>
      <data key="v_adjustedPValue">1.65512987688613e-22</data>
    </node>
    <node id="n27">
      <data key="v_name">mmu05215</data>
      <data key="v_description">Prostate cancer - Mus musculus (house mouse)</data>
      <data key="v_database">KEGG</data>
      <data key="v_pValue">3.59491917418976e-08</data>
      <data key="v_pp">2.74404826088443</data>
      <data key="v_size">95</data>
      <data key="v_nSignificant">0</data>
      <data key="v_setRank">0.00347662536185497</data>
      <data key="v_pSetRank">1</data>
      <data key="v_correctedPValue">0.00180281739201831</data>
      <data key="v_adjustedPValue">1.65512987688613e-22</data>
    </node>
    <node id="n28">
      <data key="v_name">mmu05225</data>
      <data key="v_description">Hepatocellular carcinoma - Mus musculus (house mouse)</data>
      <data key="v_database">KEGG</data>
      <data key="v_pValue">8.47403040369557e-08</data>
      <data key="v_pp">4.6341522927992</data>
      <data key="v_size">165</data>
      <data key="v_nSignificant">0</data>
      <data key="v_setRank">0.00394924830071353</data>
      <data key="v_pSetRank">1</data>
      <data key="v_correctedPValue">2.32192243170665e-05</data>
      <data key="v_adjustedPValue">1.65512987688613e-22</data>
    </node>
    <node id="n29">
      <data key="v_name">R-MMU-109581</data>
      <data key="v_description">Mus musculus: Apoptosis</data>
      <data key="v_database">Reactome</data>
      <data key="v_pValue">1.6874261758317e-06</data>
      <data key="v_pp">3.20208207354782</data>
      <data key="v_size">102</data>
      <data key="v_nSignificant">0</data>
      <data key="v_setRank">0.00215543109047974</data>
      <data key="v_pSetRank">1</data>
      <data key="v_correctedPValue">0.000627939678725288</data>
      <data key="v_adjustedPValue">1.65512987688613e-22</data>
    </node>
    <node id="n30">
      <data key="v_name">R-MMU-112382</data>
      <data key="v_description">Mus musculus: Formation of RNA Pol II elongation complex</data>
      <data key="v_database">Reactome</data>
      <data key="v_pValue">0.000134237838191419</data>
      <data key="v_pp">2.94735523009427</data>
      <data key="v_size">55</data>
      <data key="v_nSignificant">0</data>
      <data key="v_setRank">0.00166086869821148</data>
      <data key="v_pSetRank">1</data>
      <data key="v_correctedPValue">0.00112887217874194</data>
      <data key="v_adjustedPValue">1.65512987688613e-22</data>
    </node>
    <node id="n31">
      <data key="v_name">R-MMU-1169408</data>
      <data key="v_description">Mus musculus: ISG15 antiviral mechanism</data>
      <data key="v_database">Reactome</data>
      <data key="v_pValue">5.99570858064099e-06</data>
      <data key="v_pp">3.46527479817123</data>
      <data key="v_size">27</data>
      <data key="v_nSignificant">0</data>
      <data key="v_setRank">0.00171252849481104</data>
      <data key="v_pSetRank">1</data>
      <data key="v_correctedPValue">0.000342550970143515</data>
      <data key="v_adjustedPValue">1.65512987688613e-22</data>
    </node>
    <node id="n32">
      <data key="v_name">R-MMU-156827</data>
      <data key="v_description">Mus musculus: L13a-mediated translational silencing of Ceruloplasmin expression</data>
      <data key="v_database">Reactome</data>
      <data key="v_pValue">1.08507238705931e-21</data>
      <data key="v_pp">3.24481746101584</data>
      <data key="v_size">113</data>
      <data key="v_nSignificant">0</data>
      <data key="v_setRank">0.0142910228625946</data>
      <data key="v_pSetRank">0.00868006289452791</data>
      <data key="v_correctedPValue">0.000569092076551734</data>
      <data key="v_adjustedPValue">1.65512987688613e-22</data>
    </node>
    <node id="n33">
      <data key="v_name">R-MMU-157118</data>
      <data key="v_description">Mus musculus: Signaling by NOTCH</data>
      <data key="v_database">Reactome</data>
      <data key="v_pValue">1.79917428182464e-05</data>
      <data key="v_pp">3.19157055074893</data>
      <data key="v_size">42</data>
      <data key="v_nSignificant">0</data>
      <data key="v_setRank">0.00249114682307334</data>
      <data key="v_pSetRank">1</data>
      <data key="v_correctedPValue">0.000643323549169911</data>
      <data key="v_adjustedPValue">1.65512987688613e-22</data>
    </node>
    <node id="n34">
      <data key="v_name">R-MMU-1632852</data>
      <data key="v_description">Mus musculus: Macroautophagy</data>
      <data key="v_database">Reactome</data>
      <data key="v_pValue">6.27948829155197e-08</data>
      <data key="v_pp">4.771897238227</data>
      <data key="v_size">123</data>
      <data key="v_nSignificant">0</data>
      <data key="v_setRank">0.00420468300174119</data>
      <data key="v_pSetRank">1</data>
      <data key="v_correctedPValue">1.69084096725941e-05</data>
      <data key="v_adjustedPValue">1.65512987688613e-22</data>
    </node>
    <node id="n35">
      <data key="v_name">R-MMU-168928</data>
      <data key="v_description">Mus musculus: DDX58/IFIH1-mediated induction of interferon-alpha/beta</data>
      <data key="v_database">Reactome</data>
      <data key="v_pValue">9.39271533918127e-06</data>
      <data key="v_pp">2.35964678121375</data>
      <data key="v_size">34</data>
      <data key="v_nSignificant">0</data>
      <data key="v_setRank">0.00273493040821226</data>
      <data key="v_pSetRank">1</data>
      <data key="v_correctedPValue">0.00436871002100022</data>
      <data key="v_adjustedPValue">1.65512987688613e-22</data>
    </node>
    <node id="n36">
      <data key="v_name">R-MMU-170834</data>
      <data key="v_description">Mus musculus: Signaling by TGF-beta Receptor Complex</data>
      <data key="v_database">Reactome</data>
      <data key="v_pValue">2.61767439715657e-07</data>
      <data key="v_pp">4.71841468350645</data>
      <data key="v_size">76</data>
      <data key="v_nSignificant">0</data>
      <data key="v_setRank">0.00288017742021887</data>
      <data key="v_pSetRank">1</data>
      <data key="v_correctedPValue">1.91242898148314e-05</data>
      <data key="v_adjustedPValue">1.65512987688613e-22</data>
    </node>
    <node id="n37">
      <data key="v_name">R-MMU-1834949</data>
      <data key="v_description">Mus musculus: Cytosolic sensors of pathogen-associated DNA</data>
      <data key="v_database">Reactome</data>
      <data key="v_pValue">1.35152572461033e-06</data>
      <data key="v_pp">2.59754600510391</data>
      <data key="v_size">32</data>
      <data key="v_nSignificant">0</data>
      <data key="v_setRank">0.00227996661039262</data>
      <data key="v_pSetRank">1</data>
      <data key="v_correctedPValue">0.00252612010237221</data>
      <data key="v_adjustedPValue">1.65512987688613e-22</data>
    </node>
    <node id="n38">
      <data key="v_name">R-MMU-187037</data>
      <data key="v_description">Mus musculus: Signaling by NTRK1 (TRKA)</data>
      <data key="v_database">Reactome</data>
      <data key="v_pValue">9.31881953054272e-08</data>
      <data key="v_pp">3.08208377457766</data>
      <data key="v_size">62</data>
      <data key="v_nSignificant">0</data>
      <data key="v_setRank">0.00268291936053552</data>
      <data key="v_pSetRank">1</data>
      <data key="v_correctedPValue">0.000827782470650014</data>
      <data key="v_adjustedPValue">1.65512987688613e-22</data>
    </node>
    <node id="n39">
      <data key="v_name">R-MMU-191273</data>
      <data key="v_description">Mus musculus: Cholesterol biosynthesis</data>
      <data key="v_database">Reactome</data>
      <data key="v_pValue">0.000683304283662101</data>
      <data key="v_pp">3.16538585665916</data>
      <data key="v_size">27</data>
      <data key="v_nSignificant">0</data>
      <data key="v_setRank">0.00166086869821148</data>
      <data key="v_pSetRank">1</data>
      <data key="v_correctedPValue">0.000683304283662101</data>
      <data key="v_adjustedPValue">0.00683304283662101</data>
    </node>
    <node id="n40">
      <data key="v_name">R-MMU-195253</data>
      <data key="v_description">Mus musculus: Degradation of beta-catenin by the destruction complex</data>
      <data key="v_database">Reactome</data>
      <data key="v_pValue">1.4000255615279e-11</data>
      <data key="v_pp">2.55679346631528</data>
      <data key="v_size">80</data>
      <data key="v_nSignificant">0</data>
      <data key="v_setRank">0.00461760068875167</data>
      <data key="v_pSetRank">1</data>
      <data key="v_correctedPValue">0.00277463930225291</data>
      <data key="v_adjustedPValue">1.65512987688613e-22</data>
    </node>
    <node id="n41">
      <data key="v_name">R-MMU-195721</data>
      <data key="v_description">Mus musculus: Signaling by WNT</data>
      <data key="v_database">Reactome</data>
      <data key="v_pValue">7.44985744603004e-11</data>
      <data key="v_pp">3.71735485460112</data>
      <data key="v_size">223</data>
      <data key="v_nSignificant">0</data>
      <data key="v_setRank">0.010951907331282</data>
      <data key="v_pSetRank">0.340329431250564</data>
      <data key="v_correctedPValue">0.000191710166952401</data>
      <data key="v_adjustedPValue">1.65512987688613e-22</data>
    </node>
    <node id="n42">
      <data key="v_name">R-MMU-196849</data>
      <data key="v_description">Mus musculus: Metabolism of water-soluble vitamins and cofactors</data>
      <data key="v_database">Reactome</data>
      <data key="v_pValue">0.00118756438089123</data>
      <data key="v_pp">3.2307446562818</data>
      <data key="v_size">107</data>
      <data key="v_nSignificant">0</data>
      <data key="v_setRank">0.00166086869821148</data>
      <data key="v_pSetRank">1</data>
      <data key="v_correctedPValue">0.000587834868833383</data>
      <data key="v_adjustedPValue">0.00677232458511449</data>
    </node>
    <node id="n43">
      <data key="v_name">R-MMU-197264</data>
      <data key="v_description">Mus musculus: Nicotinamide salvaging</data>
      <data key="v_database">Reactome</data>
      <data key="v_pValue">0.00782007337878663</data>
      <data key="v_pp">2.10678917176718</data>
      <data key="v_size">17</data>
      <data key="v_nSignificant">0</data>
      <data key="v_setRank">0.00166086869821148</data>
      <data key="v_pSetRank">1</data>
      <data key="v_correctedPValue">0.00782007337878663</data>
      <data key="v_adjustedPValue">0.00677232458511449</data>
    </node>
    <node id="n44">
      <data key="v_name">R-MMU-199977</data>
      <data key="v_description">Mus musculus: ER to Golgi Anterograde Transport</data>
      <data key="v_database">Reactome</data>
      <data key="v_pValue">1.32016886603765e-10</data>
      <data key="v_pp">9.87937051356859</data>
      <data key="v_size">146</data>
      <data key="v_nSignificant">0</data>
      <data key="v_setRank">0.00617263453132259</data>
      <data key="v_pSetRank">1</data>
      <data key="v_correctedPValue">1.32016886603765e-10</data>
      <data key="v_adjustedPValue">1.65512987688613e-22</data>
    </node>
    <node id="n45">
      <data key="v_name">R-MMU-199992</data>
      <data key="v_description">Mus musculus: trans-Golgi Network Vesicle Budding</data>
      <data key="v_database">Reactome</data>
      <data key="v_pValue">1.06887811996337e-08</data>