<?xml version="1.0" encoding="UTF-8"?>
<graphml xmlns="http://graphml.graphdrawing.org/xmlns"
         xmlns:xsi="http://www.w3.org/2001/XMLSchema-instance"
         xsi:schemaLocation="http://graphml.graphdrawing.org/xmlns
         http://graphml.graphdrawing.org/xmlns/1.0/graphml.xsd">
<!-- Created by igraph -->
  <key id="v_name" for="node" attr.name="name" attr.type="string"/>
  <key id="v_description" for="node" attr.name="description" attr.type="string"/>
  <key id="v_database" for="node" attr.name="database" attr.type="string"/>
  <key id="v_pValue" for="node" attr.name="pValue" attr.type="double"/>
  <key id="v_pp" for="node" attr.name="pp" attr.type="double"/>
  <key id="v_size" for="node" attr.name="size" attr.type="double"/>
  <key id="v_nSignificant" for="node" attr.name="nSignificant" attr.type="double"/>
  <key id="v_setRank" for="node" attr.name="setRank" attr.type="double"/>
  <key id="v_pSetRank" for="node" attr.name="pSetRank" attr.type="double"/>
  <key id="v_correctedPValue" for="node" attr.name="correctedPValue" attr.type="double"/>
  <key id="v_adjustedPValue" for="node" attr.name="adjustedPValue" attr.type="double"/>
  <key id="e_type" for="edge" attr.name="type" attr.type="string"/>
  <key id="e_source_pDiff" for="edge" attr.name="source_pDiff" attr.type="double"/>
  <key id="e_source_ppDiff" for="edge" attr.name="source_ppDiff" attr.type="double"/>
  <key id="e_source_diffSize" for="edge" attr.name="source_diffSize" attr.type="double"/>
  <key id="e_sink_pDiff" for="edge" attr.name="sink_pDiff" attr.type="double"/>
  <key id="e_sink_ppDiff" for="edge" attr.name="sink_ppDiff" attr.type="double"/>
  <key id="e_sink_diffSize" for="edge" attr.name="sink_diffSize" attr.type="double"/>
  <key id="e_deltaP" for="edge" attr.name="deltaP" attr.type="double"/>
  <key id="e_intersectionSize" for="edge" attr.name="intersectionSize" attr.type="double"/>
  <key id="e_pIntersection" for="edge" attr.name="pIntersection" attr.type="double"/>
  <key id="e_ppIntersection" for="edge" attr.name="ppIntersection" attr.type="double"/>
  <key id="e_jaccard" for="edge" attr.name="jaccard" attr.type="double"/>
  <key id="e_significantJaccard" for="edge" attr.name="significantJaccard" attr.type="double"/>
  <key id="e_discardSource" for="edge" attr.name="discardSource" attr.type="boolean"/>
  <key id="e_discardSink" for="edge" attr.name="discardSink" attr.type="boolean"/>
  <graph id="G" edgedefault="directed">
    <node id="n0">
      <data key="v_name">mmu00232</data>
      <data key="v_description">Caffeine metabolism - Mus musculus (house mouse)</data>
      <data key="v_database">KEGG</data>
      <data key="v_pValue">0.00358030492228623</data>
      <data key="v_pp">2.92272545799328</data>
      <data key="v_size">3</data>
      <data key="v_nSignificant">0</data>
      <data key="v_setRank">0.00284597103440085</data>
      <data key="v_pSetRank">1</data>
      <data key="v_correctedPValue">0.00119474313022694</data>
      <data key="v_adjustedPValue">0.00955794504181551</data>
    </node>
    <node id="n1">
      <data key="v_name">mmu00512</data>
      <data key="v_description">Mucin type O-glycan biosynthesis - Mus musculus (house mouse)</data>
      <data key="v_database">KEGG</data>
      <data key="v_pValue">0.00496707347522476</data>
      <data key="v_pp">2.30389941567447</data>
      <data key="v_size">29</data>
      <data key="v_nSignificant">0</data>
      <data key="v_setRank">0.00153836272129775</data>
      <data key="v_pSetRank">1</data>
      <data key="v_correctedPValue">0.00496707347522476</data>
      <data key="v_adjustedPValue">0.0248353673761238</data>
    </node>
    <node id="n2">
      <data key="v_name">mmu00920</data>
      <data key="v_description">Sulfur metabolism - Mus musculus (house mouse)</data>
      <data key="v_database">KEGG</data>
      <data key="v_pValue">0.00248239973124588</data>
      <data key="v_pp">2.73481651157262</data>
      <data key="v_size">11</data>
      <data key="v_nSignificant">0</data>
      <data key="v_setRank">0.00284597103440085</data>
      <data key="v_pSetRank">1</data>
      <data key="v_correctedPValue">0.00184154988775428</data>
      <data key="v_adjustedPValue">0.0128908492142799</data>
    </node>
    <node id="n3">
      <data key="v_name">mmu01212</data>
      <data key="v_description">Fatty acid metabolism - Mus musculus (house mouse)</data>
      <data key="v_database">KEGG</data>
      <data key="v_pValue">2.76830215869024e-05</data>
      <data key="v_pp">5.3679791509421</data>
      <data key="v_size">59</data>
      <data key="v_nSignificant">0</data>
      <data key="v_setRank">0.00153836272129775</data>
      <data key="v_pSetRank">1</data>
      <data key="v_correctedPValue">4.28569094104349e-06</data>
      <data key="v_adjustedPValue">5.57139822335653e-05</data>
    </node>
    <node id="n4">
      <data key="v_name">mmu03082</data>
      <data key="v_description">ATP-dependent chromatin remodeling - Mus musculus (house mouse)</data>
      <data key="v_database">KEGG</data>
      <data key="v_pValue">0.000364877227806167</data>
      <data key="v_pp">2.09615119614618</data>
      <data key="v_size">117</data>
      <data key="v_nSignificant">0</data>
      <data key="v_setRank">0.00169303148791986</data>
      <data key="v_pSetRank">1</data>
      <data key="v_correctedPValue">0.00801399014166691</data>
      <data key="v_adjustedPValue">3.29453001412488e-24</data>
    </node>
    <node id="n5">
      <data key="v_name">mmu03250</data>
      <data key="v_description">Viral life cycle - HIV-1 - Mus musculus (house mouse)</data>
      <data key="v_database">KEGG</data>
      <data key="v_pValue">1.86345792776244e-06</data>
      <data key="v_pp">5.72968040808689</data>
      <data key="v_size">60</data>
      <data key="v_nSignificant">0</data>
      <data key="v_setRank">0.00267603614023467</data>
      <data key="v_pSetRank">1</data>
      <data key="v_correctedPValue">1.86345792776244e-06</data>
      <data key="v_adjustedPValue">3.29453001412488e-24</data>
    </node>
    <node id="n6">
      <data key="v_name">mmu04070</data>
      <data key="v_description">Phosphatidylinositol signaling system - Mus musculus (house mouse)</data>
      <data key="v_database">KEGG</data>
      <data key="v_pValue">5.95762595392208e-05</data>
      <data key="v_pp">4.22492676719131</data>
      <data key="v_size">93</data>
      <data key="v_nSignificant">0</data>
      <data key="v_setRank">0.00153836272129775</data>
      <data key="v_pSetRank">1</data>
      <data key="v_correctedPValue">5.95762595392208e-05</data>
      <data key="v_adjustedPValue">0.000655338854931429</data>
    </node>
    <node id="n7">
      <data key="v_name">mmu04110</data>
      <data key="v_description">Cell cycle - Mus musculus (house mouse)</data>
      <data key="v_database">KEGG</data>
      <data key="v_pValue">1.62368809893856e-05</data>
      <data key="v_pp">3.45015451321612</data>
      <data key="v_size">156</data>
      <data key="v_nSignificant">0</data>
      <data key="v_setRank">0.00157442915683695</data>
      <data key="v_pSetRank">1</data>
      <data key="v_correctedPValue">0.000354687176240292</data>
      <data key="v_adjustedPValue">3.29453001412488e-24</data>
    </node>
    <node id="n8">
      <data key="v_name">mmu04136</data>
      <data key="v_description">Autophagy - other - Mus musculus (house mouse)</data>
      <data key="v_database">KEGG</data>
      <data key="v_pValue">1.04402864757838e-05</data>
      <data key="v_pp">3.60659765425491</data>
      <data key="v_size">31</data>
      <data key="v_nSignificant">0</data>
      <data key="v_setRank">0.00162769326294094</data>
      <data key="v_pSetRank">1</data>
      <data key="v_correctedPValue">0.000247401509859902</data>
      <data key="v_adjustedPValue">3.29453001412488e-24</data>
    </node>
    <node id="n9">
      <data key="v_name">mmu04137</data>
      <data key="v_description">Mitophagy - animal - Mus musculus (house mouse)</data>
      <data key="v_database">KEGG</data>
      <data key="v_pValue">1.35955674637174e-07</data>
      <data key="v_pp">5.43021324165778</data>
      <data key="v_size">97</data>
      <data key="v_nSignificant">0</data>
      <data key="v_setRank">0.00300432657017202</data>
      <data key="v_pSetRank">1</data>
      <data key="v_correctedPValue">3.7135284745475e-06</data>
      <data key="v_adjustedPValue">3.29453001412488e-24</data>
    </node>
    <node id="n10">
      <data key="v_name">mmu04211</data>
      <data key="v_description">Longevity regulating pathway - Mus musculus (house mouse)</data>
      <data key="v_database">KEGG</data>
      <data key="v_pValue">2.77187253893612e-05</data>
      <data key="v_pp">2.48772968507244</data>
      <data key="v_size">86</data>
      <data key="v_nSignificant">0</data>
      <data key="v_setRank">0.00162243285025561</data>
      <data key="v_pSetRank">1</data>
      <data key="v_correctedPValue">0.00325289702220386</data>
      <data key="v_adjustedPValue">3.29453001412488e-24</data>
    </node>
    <node id="n11">
      <data key="v_name">mmu04216</data>
      <data key="v_description">Ferroptosis - Mus musculus (house mouse)</data>
      <data key="v_database">KEGG</data>
      <data key="v_pValue">0.000885651389717173</data>
      <data key="v_pp">3.05273719156127</data>
      <data key="v_size">40</data>
      <data key="v_nSignificant">0</data>
      <data key="v_setRank">0.00153836272129775</data>
      <data key="v_pSetRank">1</data>
      <data key="v_correctedPValue">0.000885651389717173</data>
      <data key="v_adjustedPValue">0.00797086250745455</data>
    </node>
    <node id="n12">
      <data key="v_name">mmu04520</data>
      <data key="v_description">Adherens junction - Mus musculus (house mouse)</data>
      <data key="v_database">KEGG</data>
      <data key="v_pValue">3.40952619797894e-07</data>
      <data key="v_pp">2.04048662662062</data>
      <data key="v_size">88</data>
      <data key="v_nSignificant">0</data>
      <data key="v_setRank">0.00188321486067534</data>
      <data key="v_pSetRank">1</data>
      <data key="v_correctedPValue">0.00910989504247199</data>
      <data key="v_adjustedPValue">3.29453001412488e-24</data>
    </node>
    <node id="n13">
      <data key="v_name">mmu04621</data>
      <data key="v_description">NOD-like receptor signaling pathway - Mus musculus (house mouse)</data>
      <data key="v_database">KEGG</data>
      <data key="v_pValue">0.00241760975194539</data>
      <data key="v_pp">2.16693800074764</data>
      <data key="v_size">166</data>
      <data key="v_nSignificant">0</data>
      <data key="v_setRank">0.00153836272129775</data>
      <data key="v_pSetRank">1</data>
      <data key="v_correctedPValue">0.00680866551280544</data>
      <data key="v_adjustedPValue">3.29453001412488e-24</data>
    </node>
    <node id="n14">
      <data key="v_name">mmu04659</data>
      <data key="v_description">Th17 cell differentiation - Mus musculus (house mouse)</data>
      <data key="v_database">KEGG</data>
      <data key="v_pValue">0.000140731871759535</data>
      <data key="v_pp">2.09078561141041</data>
      <data key="v_size">97</data>
      <data key="v_nSignificant">0</data>
      <data key="v_setRank">0.00163018310816559</data>
      <data key="v_pSetRank">1</data>
      <data key="v_correctedPValue">0.00811361485961331</data>
      <data key="v_adjustedPValue">3.29453001412488e-24</data>
    </node>
    <node id="n15">
      <data key="v_name">mmu04714</data>
      <data key="v_description">Thermogenesis - Mus musculus (house mouse)</data>
      <data key="v_database">KEGG</data>
      <data key="v_pValue">5.47622239010182e-16</data>
      <data key="v_pp">4.88869124357478</data>
      <data key="v_size">223</data>
      <data key="v_nSignificant">0</data>
      <data key="v_setRank">0.0128860552551871</data>
      <data key="v_pSetRank">0.000401520078813863</data>
      <data key="v_correctedPValue">1.29213757677628e-05</data>
      <data key="v_adjustedPValue">3.29453001412488e-24</data>
    </node>
    <node id="n16">
      <data key="v_name">mmu04932</data>
      <data key="v_description">Non-alcoholic fatty liver disease - Mus musculus (house mouse)</data>
      <data key="v_database">KEGG</data>
      <data key="v_pValue">8.15224042007044e-17</data>
      <data key="v_pp">2.92541376150145</data>
      <data key="v_size">149</data>
      <data key="v_nSignificant">0</data>
      <data key="v_setRank">0.0230451494541403</data>
      <data key="v_pSetRank">3.43035228319408e-11</data>
      <data key="v_correctedPValue">0.00118737045554587</data>
      <data key="v_adjustedPValue">3.29453001412488e-24</data>
    </node>
    <node id="n17">
      <data key="v_name">mmu05010</data>
      <data key="v_description">Alzheimer disease - Mus musculus (house mouse)</data>
      <data key="v_database">KEGG</data>
      <data key="v_pValue">1.877767029945e-17</data>
      <data key="v_pp">5.20954741617478</data>
      <data key="v_size">363</data>
      <data key="v_nSignificant">0</data>
      <data key="v_setRank">0.0572094052506879</data>
      <data key="v_pSetRank">2.08218611987125e-28</data>
      <data key="v_correctedPValue">6.17237898313511e-06</data>
      <data key="v_adjustedPValue">3.29453001412488e-24</data>
    </node>
    <node id="n18">
      <data key="v_name">mmu05132</data>
      <data key="v_description">Salmonella infection - Mus musculus (house mouse)</data>
      <data key="v_database">KEGG</data>
      <data key="v_pValue">9.02383659551232e-13</data>
      <data key="v_pp">8.67244189830871</data>
      <data key="v_size">245</data>
      <data key="v_nSignificant">0</data>
      <data key="v_setRank">0.0107627918143812</data>
      <data key="v_pSetRank">0.0151313032381613</data>
      <data key="v_correctedPValue">2.12597474778569e-09</data>
      <data key="v_adjustedPValue">3.29453001412488e-24</data>
    </node>
    <node id="n19">
      <data key="v_name">mmu05134</data>
      <data key="v_description">Legionellosis - Mus musculus (house mouse)</data>
      <data key="v_database">KEGG</data>
      <data key="v_pValue">0.000126150093527246</data>
      <data key="v_pp">2.64510138230309</data>
      <data key="v_size">56</data>
      <data key="v_nSignificant">0</data>
      <data key="v_setRank">0.00153836272129775</data>
      <data key="v_pSetRank">1</data>
      <data key="v_correctedPValue">0.00226411570760213</data>
      <data key="v_adjustedPValue">3.29453001412488e-24</data>
    </node>
    <node id="n20">
      <data key="v_name">mmu05145</data>
      <data key="v_description">Toxoplasmosis - Mus musculus (house mouse)</data>
      <data key="v_database">KEGG</data>
      <data key="v_pValue">6.65770235590898e-05</data>
      <data key="v_pp">3.09287351574308</data>
      <data key="v_size">103</data>
      <data key="v_nSignificant">0</data>
      <data key="v_setRank">0.0018025713243768</data>
      <data key="v_pSetRank">1</data>
      <data key="v_correctedPValue">0.000807470164234806</data>
      <data key="v_adjustedPValue">3.29453001412488e-24</data>
    </node>
    <node id="n21">
      <data key="v_name">mmu05152</data>
      <data key="v_description">Tuberculosis - Mus musculus (house mouse)</data>
      <data key="v_database">KEGG</data>
      <data key="v_pValue">0.000922555570276348</data>
      <data key="v_pp">2.00071636559833</data>
      <data key="v_size">153</data>
      <data key="v_nSignificant">0</data>
      <data key="v_setRank">0.00159521525665006</data>
      <data key="v_pSetRank">1</data>
      <data key="v_correctedPValue">0.00998351866917616</data>
      <data key="v_adjustedPValue">3.29453001412488e-24</data>
    </node>
    <node id="n22">
      <data key="v_name">mmu05161</data>
      <data key="v_description">Hepatitis B - Mus musculus (house mouse)</data>
      <data key="v_database">KEGG</data>
      <data key="v_pValue">7.07242387444766e-08</data>
      <data key="v_pp">4.09535877192674</data>
      <data key="v_size">148</data>
      <data key="v_nSignificant">0</data>
      <data key="v_setRank">0.00349937457161713</data>
      <data key="v_pSetRank">1</data>
      <data key="v_correctedPValue">8.02862601039745e-05</data>
      <data key="v_adjustedPValue">3.29453001412488e-24</data>
    </node>
    <node id="n23">
      <data key="v_name">mmu05171</data>
      <data key="v_description">Coronavirus disease - COVID-19 - Mus musculus (house mouse)</data>
      <data key="v_database">KEGG</data>
      <data key="v_pValue">9.85412399535726e-17</data>
      <data key="v_pp">2.47376273825446</data>
      <data key="v_size">252</data>
      <data key="v_nSignificant">0</data>
      <data key="v_setRank">0.0362196472319969</data>
      <data key="v_pSetRank">8.21695633480092e-19</data>
      <data key="v_correctedPValue">0.00335921082969342</data>
      <data key="v_adjustedPValue">3.29453001412488e-24</data>
    </node>
    <node id="n24">
      <data key="v_name">mmu05203</data>
      <data key="v_description">Viral carcinogenesis - Mus musculus (house mouse)</data>
      <data key="v_database">KEGG</data>
      <data key="v_pValue">9.31065040713043e-06</data>
      <data key="v_pp">3.23360139597776</data>
      <data key="v_size">208</data>
      <data key="v_nSignificant">0</data>
      <data key="v_setRank">0.00430753182918171</data>
      <data key="v_pSetRank">1</data>
      <data key="v_correctedPValue">0.000583980847492643</data>
      <data key="v_adjustedPValue">3.29453001412488e-24</data>
    </node>
    <node id="n25">
      <data key="v_name">mmu05205</data>
      <data key="v_description">Proteoglycans in cancer - Mus musculus (house mouse)</data>
      <data key="v_database">KEGG</data>
      <data key="v_pValue">1.92869083120384e-07</data>
      <data key="v_pp">2.66993352179573</data>
      <data key="v_size">190</data>
      <data key="v_nSignificant">0</data>
      <data key="v_setRank">0.00334943289797166</data>
      <data key="v_pSetRank">1</data>
      <data key="v_correctedPValue">0.0021382893760897</data>
      <data key="v_adjustedPValue">3.29453001412488e-24</data>
    </node>
    <node id="n26">
      <data key="v_name">mmu05208</data>
      <data key="v_description">Chemical carcinogenesis - reactive oxygen species - Mus musculus (house mouse)</data>
      <data key="v_database">KEGG</data>
      <data key="v_pValue">1.41288227535161e-22</data>
      <data key="v_pp">21.8498940230737</data>
      <data key="v_size">215</data>
      <data key="v_nSignificant">0</data>
      <data key="v_setRank">0.0775169483853835</data>
      <data key="v_pSetRank">7.67631601099859e-36</data>
      <data key="v_correctedPValue">1.41288227535161e-22</data>
      <data key="v_adjustedPValue">3.29453001412488e-24</data>
    </node>
    <node id="n27">
      <data key="v_name">mmu05215</data>
      <data key="v_description">Prostate cancer - Mus musculus (house mouse)</data>
      <data key="v_database">KEGG</data>
      <data key="v_pValue">2.53131476290231e-08</data>
      <data key="v_pp">2.87023484565296</data>
      <data key="v_size">95</data>
      <data key="v_nSignificant">0</data>
      <data key="v_setRank">0.00344680261425426</data>
      <data key="v_pSetRank">1</data>
      <data key="v_correctedPValue">0.00134823362527202</data>
      <data key="v_adjustedPValue">3.29453001412488e-24</data>
    </node>
    <node id="n28">
      <data key="v_name">mmu05225</data>
      <data key="v_description">Hepatocellular carcinoma - Mus musculus (house mouse)</data>
      <data key="v_database">KEGG</data>
      <data key="v_pValue">5.28601586428684e-08</data>
      <data key="v_pp">3.60864057956934</data>
      <data key="v_size">165</data>
      <data key="v_nSignificant">0</data>
      <data key="v_setRank">0.00393109169783355</data>
      <data key="v_pSetRank">1</data>
      <data key="v_correctedPValue">0.000246240463764903</data>
      <data key="v_adjustedPValue">3.29453001412488e-24</data>
    </node>
    <node id="n29">
      <data key="v_name">mmu05417</data>
      <data key="v_description">Lipid and atherosclerosis - Mus musculus (house mouse)</data>
      <data key="v_database">KEGG</data>
      <data key="v_pValue">4.85821306830635e-06</data>
      <data key="v_pp">2.38716186673883</data>
      <data key="v_size">190</data>
      <data key="v_nSignificant">0</data>
      <data key="v_setRank">0.00251655423312297</data>
      <data key="v_pSetRank">1</data>
      <data key="v_correctedPValue">0.00410051243507681</data>
      <data key="v_adjustedPValue">3.29453001412488e-24</data>
    </node>
    <node id="n30">
      <data key="v_name">R-MMU-109606</data>
      <data key="v_description">Mus musculus: Intrinsic Pathway for Apoptosis</data>
      <data key="v_database">Reactome</data>
      <data key="v_pValue">7.93853860674717e-07</data>
      <data key="v_pp">3.36314338694697</data>
      <data key="v_size">39</data>
      <data key="v_nSignificant">0</data>
      <data key="v_setRank">0.00169875927043463</data>
      <data key="v_pSetRank">1</data>
      <data key="v_correctedPValue">0.000433367773780656</data>
      <data key="v_adjustedPValue">3.29453001412488e-24</data>
    </node>
    <node id="n31">
      <data key="v_name">R-MMU-112382</data>
      <data key="v_description">Mus musculus: Formation of RNA Pol II elongation complex</data>
      <data key="v_database">Reactome</data>
      <data key="v_pValue">0.000110710290126777</data>
      <data key="v_pp">2.98295751160633</data>
      <data key="v_size">55</data>
      <data key="v_nSignificant">0</data>
      <data key="v_setRank">0.00153836272129775</data>
      <data key="v_pSetRank">1</data>
      <data key="v_correctedPValue">0.00104002190946307</data>
      <data key="v_adjustedPValue">3.29453001412488e-24</data>
    </node>
    <node id="n32">
      <data key="v_name">R-MMU-1236975</data>
      <data key="v_description">Mus musculus: Antigen processing-Cross presentation</data>
      <data key="v_database">Reactome</data>
      <data key="v_pValue">7.71185164586382e-10</data>
      <data key="v_pp">4.4875349514876</data>
      <data key="v_size">83</data>
      <data key="v_nSignificant">0</data>
      <data key="v_setRank">0.00477136994179976</data>
      <data key="v_pSetRank">1</data>
      <data key="v_correctedPValue">3.25435591786572e-05</data>
      <data key="v_adjustedPValue">3.29453001412488e-24</data>
    </node>
    <node id="n33">
      <data key="v_name">R-MMU-1266738</data>
      <data key="v_description">Mus musculus: Developmental Biology</data>
      <data key="v_database">Reactome</data>
      <data key="v_pValue">2.11740248619827e-05</data>
      <data key="v_pp">2.49076435798145</data>
      <data key="v_size">402</data>
      <data key="v_nSignificant">0</data>
      <data key="v_setRank">0.00513945843592051</data>
      <data key="v_pSetRank">1</data>
      <data key="v_correctedPValue">0.00323024633209508</data>
      <data key="v_adjustedPValue">3.29453001412488e-24</data>
    </node>
    <node id="n34">
      <data key="v_name">R-MMU-1614517</data>
      <data key="v_description">Mus musculus: Sulfide oxidation to sulfate</data>
      <data key="v_database">Reactome</data>
      <data key="v_pValue">0.00101673513899903</data>
      <data key="v_pp">2.73481651157262</data>
      <data key="v_size">5</data>
      <data key="v_nSignificant">0</data>
      <data key="v_setRank">0.00153836272129775</data>
      <data key="v_pSetRank">1</data>
      <data key="v_correctedPValue">0.00184154988775428</data>
      <data key="v_adjustedPValue">0.0128908492142799</data>
    </node>
    <node id="n35">
      <data key="v_name">R-MMU-163210</data>
      <data key="v_description">Mus musculus: Formation of ATP by chemiosmotic coupling</data>
      <data key="v_database">Reactome</data>
      <data key="v_pValue">3.73915111789239e-09</data>
      <data key="v_pp">3.22870919615842</data>
      <data key="v_size">20</data>
      <data key="v_nSignificant">0</data>
      <data key="v_setRank">0.00153836272129775</data>
      <data key="v_pSetRank">1</data>
      <data key="v_correctedPValue">0.000590596411505983</data>
      <data key="v_adjustedPValue">3.29453001412488e-24</data>
    </node>
    <node id="n36">
      <data key="v_name">R-MMU-168164</data>
      <data key="v_description">Mus musculus: Toll Like Receptor 3 (TLR3) Cascade</data>
      <data key="v_database">Reactome</data>
      <data key="v_pValue">5.81034392832856e-06</data>
      <data key="v_pp">2.02310313359105</data>
      <data key="v_size">81</data>
      <data key="v_nSignificant">0</data>
      <data key="v_setRank">0.00248981273139706</data>
      <data key="v_pSetRank">1</data>
      <data key="v_correctedPValue">0.00948193265439021</data>
      <data key="v_adjustedPValue">3.29453001412488e-24</data>
    </node>
    <node id="n37">
      <data key="v_name">R-MMU-177929</data>
      <data key="v_description">Mus musculus: Signaling by EGFR</data>
      <data key="v_database">Reactome</data>
      <data key="v_pValue">1.08459766788304e-05</data>
      <data key="v_pp">2.63094160711177</data>
      <data key="v_size">49</data>
      <data key="v_nSignificant">0</data>
      <data key="v_setRank">0.0018434077729132</data>
      <data key="v_pSetRank">1</data>
      <data key="v_correctedPValue">0.00233915172721241</data>
      <data key="v_adjustedPValue">3.29453001412488e-24</data>
    </node>
    <node id="n38">
      <data key="v_name">R-MMU-187037</data>
      <data key="v_description">Mus musculus: Signaling by NTRK1 (TRKA)</data>
      <data key="v_database">Reactome</data>
      <data key="v_pValue">7.12427952802417e-08</data>
      <data key="v_pp">3.02134017873529</data>
      <data key="v_size">62</data>
      <data key="v_nSignificant">0</data>
      <data key="v_setRank">0.00282280793579057</data>
      <data key="v_pSetRank">1</data>
      <data key="v_correctedPValue">0.00095205014006927</data>
      <data key="v_adjustedPValue">3.29453001412488e-24</data>
    </node>
    <node id="n39">
      <data key="v_name">R-MMU-191273</data>
      <data key="v_description">Mus musculus: Cholesterol biosynthesis</data>
      <data key="v_database">Reactome</data>
      <data key="v_pValue">0.000599827197289173</data>
      <data key="v_pp">3.22197384640439</data>
      <data key="v_size">27</data>
      <data key="v_nSignificant">0</data>
      <data key="v_setRank">0.00153836272129775</data>
      <data key="v_pSetRank">1</data>
      <data key="v_correctedPValue">0.000599827197289173</data>
      <data key="v_adjustedPValue">0.00599827197289173</data>
    </node>
    <node id="n40">
      <data key="v_name">R-MMU-195253</data>
      <data key="v_description">Mus musculus: Degradation of beta-catenin by the destruction complex</data>
      <data key="v_database">Reactome</data>
      <data key="v_pValue">9.77921263554061e-12</data>
      <data key="v_pp">2.6009957652876</data>
      <data key="v_size">80</data>
      <data key="v_nSignificant">0</data>
      <data key="v_setRank">0.00528029165749715</data>
      <data key="v_pSetRank">1</data>
      <data key="v_correctedPValue">0.0025061336896854</data>
      <data key="v_adjustedPValue">3.29453001412488e-24</data>
    </node>
    <node id="n41">
      <data key="v_name">R-MMU-195721</data>
      <data key="v_description">Mus musculus: Signaling by WNT</data>
      <data key="v_database">Reactome</data>
      <data key="v_pValue">8.40669674408519e-11</data>
      <data key="v_pp">3.65829334672647</data>
      <data key="v_size">227</data>
      <data key="v_nSignificant">0</data>
      <data key="v_setRank">0.0129614531952946</data>
      <data key="v_pSetRank">0.000354667832734432</data>
      <data key="v_correctedPValue">0.000219637581685091</data>
      <data key="v_adjustedPValue">3.29453001412488e-24</data>
    </node>
    <node id="n42">
      <data key="v_name">R-MMU-197264</data>
      <data key="v_description">Mus musculus: Nicotinamide salvaging</data>
      <data key="v_database">Reactome</data>
      <data key="v_pValue">0.007591227571246</data>
      <data key="v_pp">2.11968798901754</data>
      <data key="v_size">17</data>
      <data key="v_nSignificant">0</data>
      <data key="v_setRank">0.00153836272129775</data>
      <data key="v_pSetRank">1</data>
      <data key="v_correctedPValue">0.007591227571246</data>
      <data key="v_adjustedPValue">0.0248353673761238</data>
    </node>
    <node id="n43">
      <data key="v_name">R-MMU-199977</data>
      <data key="v_description">Mus musculus: ER to Golgi Anterograde Transport</data>
      <data key="v_database">Reactome</data>
      <data key="v_pValue">3.9992157356039e-10</data>
      <data key="v_pp">9.39802516744558</data>
      <data key="v_size">148</data>
      <data key="v_nSignificant">0</data>
      <data key="v_setRank">0.00543111925290211</data>
      <data key="v_pSetRank">1</data>
      <data key="v_correctedPValue">3.9992157356039e-10</data>
      <data key="v_adjustedPValue">3.29453001412488e-24</data>
    </node>
    <node id="n44">
      <data key="v_name">R-MMU-199992</data>
      <data key="v_description">Mus musculus: trans-Golgi Network Vesicle Budding</data>
      <data key="v_database">Reactome</data>
      <data key="v_pValue">7.80407519392032e-09</data>
      <data key="v_pp">2.70274065321999</data>
      <data key="v_size">70</data>
      <data key="v_nSignificant">0</data>
      <data key="v_setRank">0.00288117530887973</data>
      <data key="v_pSetRank">1</data>
      <data key="v_correctedPValue">0.00198271068378083</data>
      <data key="v_adjustedPValue">3.29453001412488e-24</data>
    </node>
    <node id="n45">
      <data key="v_name">R-MMU-2559583</data>
      <data key="v_description">Mus musculus: Cellular Senescence</data>
      <data key="v_database">Reactome</data>
      <data key="v_pValue">0.00043697900396977</data>