<?xml version="1.0" encoding="UTF-8"?>
<graphml xmlns="http://graphml.graphdrawing.org/xmlns"
         xmlns:xsi="http://www.w3.org/2001/XMLSchema-instance"
         xsi:schemaLocation="http://graphml.graphdrawing.org/xmlns
         http://graphml.graphdrawing.org/xmlns/1.0/graphml.xsd">
<!-- Created by igraph -->
  <key id="v_name" for="node" attr.name="name" attr.type="string"/>
  <key id="v_description" for="node" attr.name="description" attr.type="string"/>
  <key id="v_database" for="node" attr.name="database" attr.type="string"/>
  <key id="v_pValue" for="node" attr.name="pValue" attr.type="double"/>
  <key id="v_pp" for="node" attr.name="pp" attr.type="double"/>
  <key id="v_size" for="node" attr.name="size" attr.type="double"/>
  <key id="v_nSignificant" for="node" attr.name="nSignificant" attr.type="double"/>
  <key id="v_setRank" for="node" attr.name="setRank" attr.type="double"/>
  <key id="v_pSetRank" for="node" attr.name="pSetRank" attr.type="double"/>
  <key id="v_correctedPValue" for="node" attr.name="correctedPValue" attr.type="double"/>
  <key id="v_adjustedPValue" for="node" attr.name="adjustedPValue" attr.type="double"/>
  <key id="e_type" for="edge" attr.name="type" attr.type="string"/>
  <key id="e_source_pDiff" for="edge" attr.name="source_pDiff" attr.type="double"/>
  <key id="e_source_ppDiff" for="edge" attr.name="source_ppDiff" attr.type="double"/>
  <key id="e_source_diffSize" for="edge" attr.name="source_diffSize" attr.type="double"/>
  <key id="e_sink_pDiff" for="edge" attr.name="sink_pDiff" attr.type="double"/>
  <key id="e_sink_ppDiff" for="edge" attr.name="sink_ppDiff" attr.type="double"/>
  <key id="e_sink_diffSize" for="edge" attr.name="sink_diffSize" attr.type="double"/>
  <key id="e_deltaP" for="edge" attr.name="deltaP" attr.type="double"/>
  <key id="e_intersectionSize" for="edge" attr.name="intersectionSize" attr.type="double"/>
  <key id="e_pIntersection" for="edge" attr.name="pIntersection" attr.type="double"/>
  <key id="e_ppIntersection" for="edge" attr.name="ppIntersection" attr.type="double"/>
  <key id="e_jaccard" for="edge" attr.name="jaccard" attr.type="double"/>
  <key id="e_significantJaccard" for="edge" attr.name="significantJaccard" attr.type="double"/>
  <key id="e_discardSource" for="edge" attr.name="discardSource" attr.type="boolean"/>
  <key id="e_discardSink" for="edge" attr.name="discardSink" attr.type="boolean"/>
  <graph id="G" edgedefault="directed">
    <node id="n0">
      <data key="v_name">mmu00190</data>
      <data key="v_description">Oxidative phosphorylation - Mus musculus (house mouse)</data>
      <data key="v_database">KEGG</data>
      <data key="v_pValue">9.50611408725526e-24</data>
      <data key="v_pp">23.0219969778418</data>
      <data key="v_size">127</data>
      <data key="v_nSignificant">0</data>
      <data key="v_setRank">0.0232200757755631</data>
      <data key="v_pSetRank">1.51819359212458e-06</data>
      <data key="v_correctedPValue">9.50611408725526e-24</data>
      <data key="v_adjustedPValue">1.61603939483339e-22</data>
    </node>
    <node id="n1">
      <data key="v_name">mmu00232</data>
      <data key="v_description">Caffeine metabolism - Mus musculus (house mouse)</data>
      <data key="v_database">KEGG</data>
      <data key="v_pValue">0.0030438290976208</data>
      <data key="v_pp">2.99330393791955</data>
      <data key="v_size">3</data>
      <data key="v_nSignificant">0</data>
      <data key="v_setRank">0.00306301201011485</data>
      <data key="v_pSetRank">1</data>
      <data key="v_correctedPValue">0.0010155377272264</data>
      <data key="v_adjustedPValue">0.00735566935049645</data>
    </node>
    <node id="n2">
      <data key="v_name">mmu00512</data>
      <data key="v_description">Mucin type O-glycan biosynthesis - Mus musculus (house mouse)</data>
      <data key="v_database">KEGG</data>
      <data key="v_pValue">0.00524199602512703</data>
      <data key="v_pp">2.28050331270381</data>
      <data key="v_size">29</data>
      <data key="v_nSignificant">0</data>
      <data key="v_setRank">0.00165568216762965</data>
      <data key="v_pSetRank">1</data>
      <data key="v_correctedPValue">0.00524199602512703</data>
      <data key="v_adjustedPValue">0.0157259880753811</data>
    </node>
    <node id="n3">
      <data key="v_name">mmu00920</data>
      <data key="v_description">Sulfur metabolism - Mus musculus (house mouse)</data>
      <data key="v_database">KEGG</data>
      <data key="v_pValue">0.0025774685663038</data>
      <data key="v_pp">2.58880662248055</data>
      <data key="v_size">11</data>
      <data key="v_nSignificant">0</data>
      <data key="v_setRank">0.00306301201011485</data>
      <data key="v_pSetRank">1</data>
      <data key="v_correctedPValue">0.0025774685663038</data>
      <data key="v_adjustedPValue">0.0103098742652152</data>
    </node>
    <node id="n4">
      <data key="v_name">mmu01212</data>
      <data key="v_description">Fatty acid metabolism - Mus musculus (house mouse)</data>
      <data key="v_database">KEGG</data>
      <data key="v_pValue">3.396455368076e-05</data>
      <data key="v_pp">5.09870495110447</data>
      <data key="v_size">59</data>
      <data key="v_nSignificant">0</data>
      <data key="v_setRank">0.00165568216762965</data>
      <data key="v_pSetRank">1</data>
      <data key="v_correctedPValue">7.96700425101668e-06</data>
      <data key="v_adjustedPValue">0.000111538059514233</data>
    </node>
    <node id="n5">
      <data key="v_name">mmu01523</data>
      <data key="v_description">Antifolate resistance - Mus musculus (house mouse)</data>
      <data key="v_database">KEGG</data>
      <data key="v_pValue">0.000563371997970551</data>
      <data key="v_pp">3.24920474313139</data>
      <data key="v_size">27</data>
      <data key="v_nSignificant">0</data>
      <data key="v_setRank">0.00165568216762965</data>
      <data key="v_pSetRank">1</data>
      <data key="v_correctedPValue">0.000563371997970551</data>
      <data key="v_adjustedPValue">0.00619709197767606</data>
    </node>
    <node id="n6">
      <data key="v_name">mmu01524</data>
      <data key="v_description">Platinum drug resistance - Mus musculus (house mouse)</data>
      <data key="v_database">KEGG</data>
      <data key="v_pValue">2.71233628362678e-07</data>
      <data key="v_pp">3.09425519054032</data>
      <data key="v_size">77</data>
      <data key="v_nSignificant">0</data>
      <data key="v_setRank">0.00242302010005741</data>
      <data key="v_pSetRank">1</data>
      <data key="v_correctedPValue">0.000804905341500741</data>
      <data key="v_adjustedPValue">1.61603939483339e-22</data>
    </node>
    <node id="n7">
      <data key="v_name">mmu04020</data>
      <data key="v_description">Calcium signaling pathway - Mus musculus (house mouse)</data>
      <data key="v_database">KEGG</data>
      <data key="v_pValue">4.8782669771896e-05</data>
      <data key="v_pp">3.20188537247631</data>
      <data key="v_size">210</data>
      <data key="v_nSignificant">0</data>
      <data key="v_setRank">0.00177295965450341</data>
      <data key="v_pSetRank">1</data>
      <data key="v_correctedPValue">0.00062822415018096</data>
      <data key="v_adjustedPValue">1.61603939483339e-22</data>
    </node>
    <node id="n8">
      <data key="v_name">mmu04070</data>
      <data key="v_description">Phosphatidylinositol signaling system - Mus musculus (house mouse)</data>
      <data key="v_database">KEGG</data>
      <data key="v_pValue">7.68866638651152e-05</data>
      <data key="v_pp">3.33877621148514</data>
      <data key="v_size">93</data>
      <data key="v_nSignificant">0</data>
      <data key="v_setRank">0.00165568216762965</data>
      <data key="v_pSetRank">1</data>
      <data key="v_correctedPValue">0.000458378024443382</data>
      <data key="v_adjustedPValue">1.61603939483339e-22</data>
    </node>
    <node id="n9">
      <data key="v_name">mmu04110</data>
      <data key="v_description">Cell cycle - Mus musculus (house mouse)</data>
      <data key="v_database">KEGG</data>
      <data key="v_pValue">1.39683938286323e-06</data>
      <data key="v_pp">3.91731580568772</data>
      <data key="v_size">154</data>
      <data key="v_nSignificant">0</data>
      <data key="v_setRank">0.00227720740954499</data>
      <data key="v_pSetRank">1</data>
      <data key="v_correctedPValue">0.000120971814353846</data>
      <data key="v_adjustedPValue">1.61603939483339e-22</data>
    </node>
    <node id="n10">
      <data key="v_name">mmu04136</data>
      <data key="v_description">Autophagy - other - Mus musculus (house mouse)</data>
      <data key="v_database">KEGG</data>
      <data key="v_pValue">1.21859295066602e-05</data>
      <data key="v_pp">2.8876242246456</data>
      <data key="v_size">31</data>
      <data key="v_nSignificant">0</data>
      <data key="v_setRank">0.00184119248327274</data>
      <data key="v_pSetRank">1</data>
      <data key="v_correctedPValue">0.00129531613512231</data>
      <data key="v_adjustedPValue">1.61603939483339e-22</data>
    </node>
    <node id="n11">
      <data key="v_name">mmu04142</data>
      <data key="v_description">Lysosome - Mus musculus (house mouse)</data>
      <data key="v_database">KEGG</data>
      <data key="v_pValue">2.80405556149363e-07</data>
      <data key="v_pp">4.38875130959272</data>
      <data key="v_size">126</data>
      <data key="v_nSignificant">0</data>
      <data key="v_setRank">0.00215615879185774</data>
      <data key="v_pSetRank">1</data>
      <data key="v_correctedPValue">4.08553269557554e-05</data>
      <data key="v_adjustedPValue">1.61603939483339e-22</data>
    </node>
    <node id="n12">
      <data key="v_name">mmu04211</data>
      <data key="v_description">Longevity regulating pathway - Mus musculus (house mouse)</data>
      <data key="v_database">KEGG</data>
      <data key="v_pValue">3.61127222673386e-05</data>
      <data key="v_pp">2.43016686532294</data>
      <data key="v_size">86</data>
      <data key="v_nSignificant">0</data>
      <data key="v_setRank">0.0016958158650445</data>
      <data key="v_pSetRank">1</data>
      <data key="v_correctedPValue">0.00371392504655747</data>
      <data key="v_adjustedPValue">1.61603939483339e-22</data>
    </node>
    <node id="n13">
      <data key="v_name">mmu04216</data>
      <data key="v_description">Ferroptosis - Mus musculus (house mouse)</data>
      <data key="v_database">KEGG</data>
      <data key="v_pValue">0.00135872493678572</data>
      <data key="v_pp">2.86686845388342</data>
      <data key="v_size">39</data>
      <data key="v_nSignificant">0</data>
      <data key="v_setRank">0.00165568216762965</data>
      <data key="v_pSetRank">1</data>
      <data key="v_correctedPValue">0.00135872493678572</data>
      <data key="v_adjustedPValue">0.00735566935049645</data>
    </node>
    <node id="n14">
      <data key="v_name">mmu04330</data>
      <data key="v_description">Notch signaling pathway - Mus musculus (house mouse)</data>
      <data key="v_database">KEGG</data>
      <data key="v_pValue">0.000367227595359112</data>
      <data key="v_pp">2.19343214552859</data>
      <data key="v_size">60</data>
      <data key="v_nSignificant">0</data>
      <data key="v_setRank">0.00165568216762965</data>
      <data key="v_pSetRank">1</data>
      <data key="v_correctedPValue">0.00640571857142955</data>
      <data key="v_adjustedPValue">1.61603939483339e-22</data>
    </node>
    <node id="n15">
      <data key="v_name">mmu04510</data>
      <data key="v_description">Focal adhesion - Mus musculus (house mouse)</data>
      <data key="v_database">KEGG</data>
      <data key="v_pValue">2.01833025280405e-07</data>
      <data key="v_pp">3.17224238875526</data>
      <data key="v_size">198</data>
      <data key="v_nSignificant">0</data>
      <data key="v_setRank">0.00456426538571282</data>
      <data key="v_pSetRank">1</data>
      <data key="v_correctedPValue">0.000672601158854763</data>
      <data key="v_adjustedPValue">1.61603939483339e-22</data>
    </node>
    <node id="n16">
      <data key="v_name">mmu04530</data>
      <data key="v_description">Tight junction - Mus musculus (house mouse)</data>
      <data key="v_database">KEGG</data>
      <data key="v_pValue">4.84074669527601e-08</data>
      <data key="v_pp">4.53383266340861</data>
      <data key="v_size">153</data>
      <data key="v_nSignificant">0</data>
      <data key="v_setRank">0.00251449240064801</data>
      <data key="v_pSetRank">1</data>
      <data key="v_correctedPValue">2.92527929055534e-05</data>
      <data key="v_adjustedPValue">1.61603939483339e-22</data>
    </node>
    <node id="n17">
      <data key="v_name">mmu04668</data>
      <data key="v_description">TNF signaling pathway - Mus musculus (house mouse)</data>
      <data key="v_database">KEGG</data>
      <data key="v_pValue">4.01180394844876e-05</data>
      <data key="v_pp">2.55175946358131</data>
      <data key="v_size">110</data>
      <data key="v_nSignificant">0</data>
      <data key="v_setRank">0.00183222306780851</data>
      <data key="v_pSetRank">1</data>
      <data key="v_correctedPValue">0.00280698787337522</data>
      <data key="v_adjustedPValue">1.61603939483339e-22</data>
    </node>
    <node id="n18">
      <data key="v_name">mmu04932</data>
      <data key="v_description">Non-alcoholic fatty liver disease - Mus musculus (house mouse)</data>
      <data key="v_database">KEGG</data>
      <data key="v_pValue">7.56805694288683e-18</data>
      <data key="v_pp">6.53797658430999</data>
      <data key="v_size">146</data>
      <data key="v_nSignificant">0</data>
      <data key="v_setRank">0.0325085566681592</data>
      <data key="v_pSetRank">4.94678073910115e-10</data>
      <data key="v_correctedPValue">2.89749980688231e-07</data>
      <data key="v_adjustedPValue">1.61603939483339e-22</data>
    </node>
    <node id="n19">
      <data key="v_name">mmu04979</data>
      <data key="v_description">Cholesterol metabolism - Mus musculus (house mouse)</data>
      <data key="v_database">KEGG</data>
      <data key="v_pValue">0.00102107298402132</data>
      <data key="v_pp">2.99094321440192</data>
      <data key="v_size">48</data>
      <data key="v_nSignificant">0</data>
      <data key="v_setRank">0.00165568216762965</data>
      <data key="v_pSetRank">1</data>
      <data key="v_correctedPValue">0.00102107298402132</data>
      <data key="v_adjustedPValue">0.00735566935049645</data>
    </node>
    <node id="n20">
      <data key="v_name">mmu05132</data>
      <data key="v_description">Salmonella infection - Mus musculus (house mouse)</data>
      <data key="v_database">KEGG</data>
      <data key="v_pValue">4.71536354525826e-13</data>
      <data key="v_pp">8.96633347273203</data>
      <data key="v_size">246</data>
      <data key="v_nSignificant">0</data>
      <data key="v_setRank">0.0117206678813537</data>
      <data key="v_pSetRank">0.170165288720089</data>
      <data key="v_correctedPValue">1.08060389167149e-09</data>
      <data key="v_adjustedPValue">1.61603939483339e-22</data>
    </node>
    <node id="n21">
      <data key="v_name">mmu05135</data>
      <data key="v_description">Yersinia infection - Mus musculus (house mouse)</data>
      <data key="v_database">KEGG</data>
      <data key="v_pValue">7.98629702303348e-09</data>
      <data key="v_pp">3.80194105529984</data>
      <data key="v_size">130</data>
      <data key="v_nSignificant">0</data>
      <data key="v_setRank">0.00660039586287335</data>
      <data key="v_pSetRank">1</data>
      <data key="v_correctedPValue">0.000157782540581685</data>
      <data key="v_adjustedPValue">1.61603939483339e-22</data>
    </node>
    <node id="n22">
      <data key="v_name">mmu05160</data>
      <data key="v_description">Hepatitis C - Mus musculus (house mouse)</data>
      <data key="v_database">KEGG</data>
      <data key="v_pValue">4.63268389649224e-09</data>
      <data key="v_pp">4.79011952685597</data>
      <data key="v_size">138</data>
      <data key="v_nSignificant">0</data>
      <data key="v_setRank">0.00731065950420434</data>
      <data key="v_pSetRank">1</data>
      <data key="v_correctedPValue">1.62136380297415e-05</data>
      <data key="v_adjustedPValue">1.61603939483339e-22</data>
    </node>
    <node id="n23">
      <data key="v_name">mmu05171</data>
      <data key="v_description">Coronavirus disease - COVID-19 - Mus musculus (house mouse)</data>
      <data key="v_database">KEGG</data>
      <data key="v_pValue">1.94585631401065e-20</data>
      <data key="v_pp">3.46353117832952</data>
      <data key="v_size">214</data>
      <data key="v_nSignificant">0</data>
      <data key="v_setRank">0.0273604712115952</data>
      <data key="v_pSetRank">3.66822435292804e-08</data>
      <data key="v_correctedPValue">0.000343929019569732</data>
      <data key="v_adjustedPValue">1.61603939483339e-22</data>
    </node>
    <node id="n24">
      <data key="v_name">mmu05203</data>
      <data key="v_description">Viral carcinogenesis - Mus musculus (house mouse)</data>
      <data key="v_database">KEGG</data>
      <data key="v_pValue">8.01033624644585e-06</data>
      <data key="v_pp">3.45695708736436</data>
      <data key="v_size">207</data>
      <data key="v_nSignificant">0</data>
      <data key="v_setRank">0.00515790052754769</data>
      <data key="v_pSetRank">1</data>
      <data key="v_correctedPValue">0.000349174815735911</data>
      <data key="v_adjustedPValue">1.61603939483339e-22</data>
    </node>
    <node id="n25">
      <data key="v_name">mmu05205</data>
      <data key="v_description">Proteoglycans in cancer - Mus musculus (house mouse)</data>
      <data key="v_database">KEGG</data>
      <data key="v_pValue">1.84773428934255e-07</data>
      <data key="v_pp">2.90904558627243</data>
      <data key="v_size">192</data>
      <data key="v_nSignificant">0</data>
      <data key="v_setRank">0.00352579232842418</data>
      <data key="v_pSetRank">1</data>
      <data key="v_correctedPValue">0.00123297540560528</data>
      <data key="v_adjustedPValue">1.61603939483339e-22</data>
    </node>
    <node id="n26">
      <data key="v_name">mmu05206</data>
      <data key="v_description">MicroRNAs in cancer - Mus musculus (house mouse)</data>
      <data key="v_database">KEGG</data>
      <data key="v_pValue">3.46552387161788e-08</data>
      <data key="v_pp">3.98875432425894</data>
      <data key="v_size">160</data>
      <data key="v_nSignificant">0</data>
      <data key="v_setRank">0.00350359385676073</data>
      <data key="v_pSetRank">1</data>
      <data key="v_correctedPValue">0.000102623229070816</data>
      <data key="v_adjustedPValue">1.61603939483339e-22</data>
    </node>
    <node id="n27">
      <data key="v_name">mmu05215</data>
      <data key="v_description">Prostate cancer - Mus musculus (house mouse)</data>
      <data key="v_database">KEGG</data>
      <data key="v_pValue">3.57142105186564e-08</data>
      <data key="v_pp">2.74577905613017</data>
      <data key="v_size">95</data>
      <data key="v_nSignificant">0</data>
      <data key="v_setRank">0.00347441269579008</data>
      <data key="v_pSetRank">1</data>
      <data key="v_correctedPValue">0.00179564691561142</data>
      <data key="v_adjustedPValue">1.61603939483339e-22</data>
    </node>
    <node id="n28">
      <data key="v_name">mmu05225</data>
      <data key="v_description">Hepatocellular carcinoma - Mus musculus (house mouse)</data>
      <data key="v_database">KEGG</data>
      <data key="v_pValue">8.38160728765164e-08</data>
      <data key="v_pp">4.63753970307926</data>
      <data key="v_size">165</data>
      <data key="v_nSignificant">0</data>
      <data key="v_setRank">0.00394428087087519</data>
      <data key="v_pSetRank">1</data>
      <data key="v_correctedPValue">2.30388234615271e-05</data>
      <data key="v_adjustedPValue">1.61603939483339e-22</data>
    </node>
    <node id="n29">
      <data key="v_name">R-MMU-109581</data>
      <data key="v_description">Mus musculus: Apoptosis</data>
      <data key="v_database">Reactome</data>
      <data key="v_pValue">1.67834340414701e-06</data>
      <data key="v_pp">3.20356883334587</data>
      <data key="v_size">102</data>
      <data key="v_nSignificant">0</data>
      <data key="v_setRank">0.00218194474871834</data>
      <data key="v_pSetRank">1</data>
      <data key="v_correctedPValue">0.000625793671120701</data>
      <data key="v_adjustedPValue">1.61603939483339e-22</data>
    </node>
    <node id="n30">
      <data key="v_name">R-MMU-112382</data>
      <data key="v_description">Mus musculus: Formation of RNA Pol II elongation complex</data>
      <data key="v_database">Reactome</data>
      <data key="v_pValue">0.000133796724698045</data>
      <data key="v_pp">2.94812609745714</data>
      <data key="v_size">55</data>
      <data key="v_nSignificant">0</data>
      <data key="v_setRank">0.00165568216762965</data>
      <data key="v_pSetRank">1</data>
      <data key="v_correctedPValue">0.0011268702217617</data>
      <data key="v_adjustedPValue">1.61603939483339e-22</data>
    </node>
    <node id="n31">
      <data key="v_name">R-MMU-1169408</data>
      <data key="v_description">Mus musculus: ISG15 antiviral mechanism</data>
      <data key="v_database">Reactome</data>
      <data key="v_pValue">5.96948028064002e-06</data>
      <data key="v_pp">3.46660369349627</data>
      <data key="v_size">27</data>
      <data key="v_nSignificant">0</data>
      <data key="v_setRank">0.00170869220544694</data>
      <data key="v_pSetRank">1</data>
      <data key="v_correctedPValue">0.00034150440230174</data>
      <data key="v_adjustedPValue">1.61603939483339e-22</data>
    </node>
    <node id="n32">
      <data key="v_name">R-MMU-156827</data>
      <data key="v_description">Mus musculus: L13a-mediated translational silencing of Ceruloplasmin expression</data>
      <data key="v_database">Reactome</data>
      <data key="v_pValue">1.06478565419936e-21</data>
      <data key="v_pp">3.24579798856444</data>
      <data key="v_size">113</data>
      <data key="v_nSignificant">0</data>
      <data key="v_setRank">0.0144009315077131</data>
      <data key="v_pSetRank">0.00987944175175867</data>
      <data key="v_correctedPValue">0.000567808659349259</data>
      <data key="v_adjustedPValue">1.61603939483339e-22</data>
    </node>
    <node id="n33">
      <data key="v_name">R-MMU-157118</data>
      <data key="v_description">Mus musculus: Signaling by NOTCH</data>
      <data key="v_database">Reactome</data>
      <data key="v_pValue">1.78818953780516e-05</data>
      <data key="v_pp">3.19353966074448</data>
      <data key="v_size">42</data>
      <data key="v_nSignificant">0</data>
      <data key="v_setRank">0.00248532214756649</data>
      <data key="v_pSetRank">1</data>
      <data key="v_correctedPValue">0.000640413294922834</data>
      <data key="v_adjustedPValue">1.61603939483339e-22</data>
    </node>
    <node id="n34">
      <data key="v_name">R-MMU-1632852</data>
      <data key="v_description">Mus musculus: Macroautophagy</data>
      <data key="v_database">Reactome</data>
      <data key="v_pValue">6.2054396467399e-08</data>
      <data key="v_pp">4.77553383999378</data>
      <data key="v_size">123</data>
      <data key="v_nSignificant">0</data>
      <data key="v_setRank">0.00420276985227832</data>
      <data key="v_pSetRank">1</data>
      <data key="v_correctedPValue">1.67674167984332e-05</data>
      <data key="v_adjustedPValue">1.61603939483339e-22</data>
    </node>
    <node id="n35">
      <data key="v_name">R-MMU-168928</data>
      <data key="v_description">Mus musculus: DDX58/IFIH1-mediated induction of interferon-alpha/beta</data>
      <data key="v_database">Reactome</data>
      <data key="v_pValue">9.34300330962897e-06</data>
      <data key="v_pp">2.35940014665191</data>
      <data key="v_size">34</data>
      <data key="v_nSignificant">0</data>
      <data key="v_setRank">0.00274404901642471</data>
      <data key="v_pSetRank">1</data>
      <data key="v_correctedPValue">0.00437119170320454</data>
      <data key="v_adjustedPValue">1.61603939483339e-22</data>
    </node>
    <node id="n36">
      <data key="v_name">R-MMU-170834</data>
      <data key="v_description">Mus musculus: Signaling by TGF-beta Receptor Complex</data>
      <data key="v_database">Reactome</data>
      <data key="v_pValue">2.59682472718742e-07</data>
      <data key="v_pp">4.84829556084634</data>
      <data key="v_size">76</data>
      <data key="v_nSignificant">0</data>
      <data key="v_setRank">0.00288497365427219</data>
      <data key="v_pSetRank">1</data>
      <data key="v_correctedPValue">1.41809210496448e-05</data>
      <data key="v_adjustedPValue">1.61603939483339e-22</data>
    </node>
    <node id="n37">
      <data key="v_name">R-MMU-1834949</data>
      <data key="v_description">Mus musculus: Cytosolic sensors of pathogen-associated DNA</data>
      <data key="v_database">Reactome</data>
      <data key="v_pValue">1.34359220459789e-06</data>
      <data key="v_pp">2.59819187954506</data>
      <data key="v_size">32</data>
      <data key="v_nSignificant">0</data>
      <data key="v_setRank">0.00227397978769837</data>
      <data key="v_pSetRank">1</data>
      <data key="v_correctedPValue">0.00252236609703989</data>
      <data key="v_adjustedPValue">1.61603939483339e-22</data>
    </node>
    <node id="n38">
      <data key="v_name">R-MMU-191273</data>
      <data key="v_description">Mus musculus: Cholesterol biosynthesis</data>
      <data key="v_database">Reactome</data>
      <data key="v_pValue">0.000682142467842572</data>
      <data key="v_pp">3.16612491194729</data>
      <data key="v_size">27</data>
      <data key="v_nSignificant">0</data>
      <data key="v_setRank">0.00165568216762965</data>
      <data key="v_pSetRank">1</data>
      <data key="v_correctedPValue">0.000682142467842572</data>
      <data key="v_adjustedPValue">0.00619709197767606</data>
    </node>
    <node id="n39">
      <data key="v_name">R-MMU-195253</data>
      <data key="v_description">Mus musculus: Degradation of beta-catenin by the destruction complex</data>
      <data key="v_database">Reactome</data>
      <data key="v_pValue">1.38431586760392e-11</data>
      <data key="v_pp">2.76200862063169</data>
      <data key="v_size">80</data>
      <data key="v_nSignificant">0</data>
      <data key="v_setRank">0.00480152034874347</data>
      <data key="v_pSetRank">1</data>
      <data key="v_correctedPValue">0.00172978202315434</data>
      <data key="v_adjustedPValue">1.61603939483339e-22</data>
    </node>
    <node id="n40">
      <data key="v_name">R-MMU-195721</data>
      <data key="v_description">Mus musculus: Signaling by WNT</data>
      <data key="v_database">Reactome</data>
      <data key="v_pValue">7.33232483102225e-11</data>
      <data key="v_pp">3.72059774139359</data>
      <data key="v_size">223</data>
      <data key="v_nSignificant">0</data>
      <data key="v_setRank">0.0107057198341977</data>
      <data key="v_pSetRank">0.497740902905195</data>
      <data key="v_correctedPValue">0.000190283994026727</data>
      <data key="v_adjustedPValue">1.61603939483339e-22</data>
    </node>
    <node id="n41">
      <data key="v_name">R-MMU-196849</data>
      <data key="v_description">Mus musculus: Metabolism of water-soluble vitamins and cofactors</data>
      <data key="v_database">Reactome</data>
      <data key="v_pValue">0.00118453128244997</data>
      <data key="v_pp">3.23179529100559</data>
      <data key="v_size">107</data>
      <data key="v_nSignificant">0</data>
      <data key="v_setRank">0.00165568216762965</data>
      <data key="v_pSetRank">1</data>
      <data key="v_correctedPValue">0.000586414511652648</data>
      <data key="v_adjustedPValue">0.00619709197767606</data>
    </node>
    <node id="n42">
      <data key="v_name">R-MMU-197264</data>
      <data key="v_description">Mus musculus: Nicotinamide salvaging</data>
      <data key="v_database">Reactome</data>
      <data key="v_pValue">0.00779921434957147</data>
      <data key="v_pp">2.10794914356987</data>
      <data key="v_size">17</data>
      <data key="v_nSignificant">0</data>
      <data key="v_setRank">0.00165568216762965</data>
      <data key="v_pSetRank">1</data>
      <data key="v_correctedPValue">0.00779921434957147</data>
      <data key="v_adjustedPValue">0.00619709197767606</data>
    </node>
    <node id="n43">
      <data key="v_name">R-MMU-199977</data>
      <data key="v_description">Mus musculus: ER to Golgi Anterograde Transport</data>
      <data key="v_database">Reactome</data>
      <data key="v_pValue">1.30222232565441e-10</data>
      <data key="v_pp">9.88531486326235</data>
      <data key="v_size">146</data>
      <data key="v_nSignificant">0</data>
      <data key="v_setRank">0.00615337019425385</data>
      <data key="v_pSetRank">1</data>
      <data key="v_correctedPValue">1.30222232565441e-10</data>
      <data key="v_adjustedPValue">1.61603939483339e-22</data>
    </node>
    <node id="n44">
      <data key="v_name">R-MMU-199992</data>
      <data key="v_description">Mus musculus: trans-Golgi Network Vesicle Budding</data>
      <data key="v_database">Reactome</data>
      <data key="v_pValue">1.05960705739334e-08</data>
      <data key="v_pp">2.68599607265195</data>
      <data key="v_size">70</data>
      <data key="v_nSignificant">0</data>
      <data key="v_setRank">0.00452267356451245</data>
      <data key="v_pSetRank">1</data>
      <data key="v_correctedPValue">0.00206064854773995</data>
      <data key="v_adjustedPValue">1.61603939483339e-22</data>
    </node>
    <node id="n45">
      <data key="v_name">R-MMU-2262752</data>
      <data key="v_description">Mus musculus: Cellular responses to stress</data>
      <data key="v_database">Reactome</data>
      <data key="v_pValue">3.59998444130641e-18</data>