<?xml version="1.0" encoding="UTF-8"?>
<graphml xmlns="http://graphml.graphdrawing.org/xmlns"
         xmlns:xsi="http://www.w3.org/2001/XMLSchema-instance"
         xsi:schemaLocation="http://graphml.graphdrawing.org/xmlns
         http://graphml.graphdrawing.org/xmlns/1.0/graphml.xsd">
<!-- Created by igraph -->
  <key id="v_name" for="node" attr.name="name" attr.type="string"/>
  <key id="v_description" for="node" attr.name="description" attr.type="string"/>
  <key id="v_database" for="node" attr.name="database" attr.type="string"/>
  <key id="v_pValue" for="node" attr.name="pValue" attr.type="double"/>
  <key id="v_pp" for="node" attr.name="pp" attr.type="double"/>
  <key id="v_size" for="node" attr.name="size" attr.type="double"/>
  <key id="v_nSignificant" for="node" attr.name="nSignificant" attr.type="double"/>
  <key id="v_setRank" for="node" attr.name="setRank" attr.type="double"/>
  <key id="v_pSetRank" for="node" attr.name="pSetRank" attr.type="double"/>
  <key id="v_correctedPValue" for="node" attr.name="correctedPValue" attr.type="double"/>
  <key id="v_adjustedPValue" for="node" attr.name="adjustedPValue" attr.type="double"/>
  <key id="e_type" for="edge" attr.name="type" attr.type="string"/>
  <key id="e_source_pDiff" for="edge" attr.name="source_pDiff" attr.type="double"/>
  <key id="e_source_ppDiff" for="edge" attr.name="source_ppDiff" attr.type="double"/>
  <key id="e_source_diffSize" for="edge" attr.name="source_diffSize" attr.type="double"/>
  <key id="e_sink_pDiff" for="edge" attr.name="sink_pDiff" attr.type="double"/>
  <key id="e_sink_ppDiff" for="edge" attr.name="sink_ppDiff" attr.type="double"/>
  <key id="e_sink_diffSize" for="edge" attr.name="sink_diffSize" attr.type="double"/>
  <key id="e_deltaP" for="edge" attr.name="deltaP" attr.type="double"/>
  <key id="e_intersectionSize" for="edge" attr.name="intersectionSize" attr.type="double"/>
  <key id="e_pIntersection" for="edge" attr.name="pIntersection" attr.type="double"/>
  <key id="e_ppIntersection" for="edge" attr.name="ppIntersection" attr.type="double"/>
  <key id="e_jaccard" for="edge" attr.name="jaccard" attr.type="double"/>
  <key id="e_significantJaccard" for="edge" attr.name="significantJaccard" attr.type="double"/>
  <key id="e_discardSource" for="edge" attr.name="discardSource" attr.type="boolean"/>
  <key id="e_discardSink" for="edge" attr.name="discardSink" attr.type="boolean"/>
  <graph id="G" edgedefault="directed">
    <node id="n0">
      <data key="v_name">GO:0001228</data>
      <data key="v_description">DNA-binding transcription activator activity, RNA polymerase II-specific</data>
      <data key="v_database">molecular_function</data>
      <data key="v_pValue">7.61453945653321e-13</data>
      <data key="v_pp">9.25484842205588</data>
      <data key="v_size">454</data>
      <data key="v_nSignificant">0</data>
      <data key="v_setRank">0.000235870555447986</data>
      <data key="v_pSetRank">1</data>
      <data key="v_correctedPValue">5.56098313456741e-10</data>
      <data key="v_adjustedPValue">1.44888124564345e-28</data>
    </node>
    <node id="n1">
      <data key="v_name">GO:0001501</data>
      <data key="v_description">skeletal system development</data>
      <data key="v_database">biological_process</data>
      <data key="v_pValue">8.27332206506862e-25</data>
      <data key="v_pp">19.294320405553</data>
      <data key="v_size">498</data>
      <data key="v_nSignificant">0</data>
      <data key="v_setRank">0.00156004522147622</data>
      <data key="v_pSetRank">2.88269853791859e-45</data>
      <data key="v_correctedPValue">5.07784680576011e-20</data>
      <data key="v_adjustedPValue">1.44888124564345e-28</data>
    </node>
    <node id="n2">
      <data key="v_name">GO:0001578</data>
      <data key="v_description">microtubule bundle formation</data>
      <data key="v_database">biological_process</data>
      <data key="v_pValue">6.08884076593886e-05</data>
      <data key="v_pp">2.0867308128391</data>
      <data key="v_size">111</data>
      <data key="v_nSignificant">0</data>
      <data key="v_setRank">0.000100277460154346</data>
      <data key="v_pSetRank">1</data>
      <data key="v_correctedPValue">0.00818972251425359</data>
      <data key="v_adjustedPValue">1.44888124564345e-28</data>
    </node>
    <node id="n3">
      <data key="v_name">GO:0001666</data>
      <data key="v_description">response to hypoxia</data>
      <data key="v_database">biological_process</data>
      <data key="v_pValue">1.75564563363965e-18</data>
      <data key="v_pp">14.190682188017</data>
      <data key="v_size">276</data>
      <data key="v_nSignificant">0</data>
      <data key="v_setRank">0.000720337650757286</data>
      <data key="v_pSetRank">0.000131620950807977</data>
      <data key="v_correctedPValue">6.44640834107763e-15</data>
      <data key="v_adjustedPValue">1.44888124564345e-28</data>
    </node>
    <node id="n4">
      <data key="v_name">GO:0001824</data>
      <data key="v_description">blastocyst development</data>
      <data key="v_database">biological_process</data>
      <data key="v_pValue">5.03986096156663e-09</data>
      <data key="v_pp">7.27946594230239</data>
      <data key="v_size">145</data>
      <data key="v_nSignificant">0</data>
      <data key="v_setRank">0.000113834325314616</data>
      <data key="v_pSetRank">1</data>
      <data key="v_correctedPValue">5.25453219928321e-08</data>
      <data key="v_adjustedPValue">1.44888124564345e-28</data>
    </node>
    <node id="n5">
      <data key="v_name">GO:0002102</data>
      <data key="v_description">podosome</data>
      <data key="v_database">cellular_component</data>
      <data key="v_pValue">2.57559146465601e-08</data>
      <data key="v_pp">3.30361287717609</data>
      <data key="v_size">37</data>
      <data key="v_nSignificant">0</data>
      <data key="v_setRank">0.000102048342967117</data>
      <data key="v_pSetRank">1</data>
      <data key="v_correctedPValue">0.000497035172870367</data>
      <data key="v_adjustedPValue">1.44888124564345e-28</data>
    </node>
    <node id="n6">
      <data key="v_name">GO:0002237</data>
      <data key="v_description">response to molecule of bacterial origin</data>
      <data key="v_database">biological_process</data>
      <data key="v_pValue">2.26427369766411e-12</data>
      <data key="v_pp">6.65162795806625</data>
      <data key="v_size">277</data>
      <data key="v_nSignificant">0</data>
      <data key="v_setRank">0.000305361487032532</data>
      <data key="v_pSetRank">1</data>
      <data key="v_correctedPValue">2.23034497445468e-07</data>
      <data key="v_adjustedPValue">1.44888124564345e-28</data>
    </node>
    <node id="n7">
      <data key="v_name">GO:0002831</data>
      <data key="v_description">regulation of response to biotic stimulus</data>
      <data key="v_database">biological_process</data>
      <data key="v_pValue">1.29930584443869e-16</data>
      <data key="v_pp">14.2433421529199</data>
      <data key="v_size">338</data>
      <data key="v_nSignificant">0</data>
      <data key="v_setRank">0.000470977489573394</data>
      <data key="v_pSetRank">1</data>
      <data key="v_correctedPValue">5.71028582414783e-15</data>
      <data key="v_adjustedPValue">1.44888124564345e-28</data>
    </node>
    <node id="n8">
      <data key="v_name">GO:0003007</data>
      <data key="v_description">heart morphogenesis</data>
      <data key="v_database">biological_process</data>
      <data key="v_pValue">5.50696224938429e-15</data>
      <data key="v_pp">6.09293956213935</data>
      <data key="v_size">253</data>
      <data key="v_nSignificant">0</data>
      <data key="v_setRank">0.000433999433552505</data>
      <data key="v_pSetRank">1</data>
      <data key="v_correctedPValue">8.07347375570235e-07</data>
      <data key="v_adjustedPValue">1.44888124564345e-28</data>
    </node>
    <node id="n9">
      <data key="v_name">GO:0003206</data>
      <data key="v_description">cardiac chamber morphogenesis</data>
      <data key="v_database">biological_process</data>
      <data key="v_pValue">7.06627683706003e-09</data>
      <data key="v_pp">2.75693672028361</data>
      <data key="v_size">131</data>
      <data key="v_nSignificant">0</data>
      <data key="v_setRank">0.000173787138250177</data>
      <data key="v_pSetRank">1</data>
      <data key="v_correctedPValue">0.0017501016719925</data>
      <data key="v_adjustedPValue">1.44888124564345e-28</data>
    </node>
    <node id="n10">
      <data key="v_name">GO:0003779</data>
      <data key="v_description">actin binding</data>
      <data key="v_database">molecular_function</data>
      <data key="v_pValue">2.04916357403007e-19</data>
      <data key="v_pp">12.820565119002</data>
      <data key="v_size">419</data>
      <data key="v_nSignificant">0</data>
      <data key="v_setRank">0.000406011349656222</data>
      <data key="v_pSetRank">1</data>
      <data key="v_correctedPValue">1.5115930310199e-13</data>
      <data key="v_adjustedPValue">1.44888124564345e-28</data>
    </node>
    <node id="n11">
      <data key="v_name">GO:0004519</data>
      <data key="v_description">endonuclease activity</data>
      <data key="v_database">molecular_function</data>
      <data key="v_pValue">1.69232292742655e-06</data>
      <data key="v_pp">4.99848600026776</data>
      <data key="v_size">114</data>
      <data key="v_nSignificant">0</data>
      <data key="v_setRank">0.000107893531241644</data>
      <data key="v_pSetRank">1</data>
      <data key="v_correctedPValue">1.0034921967742e-05</data>
      <data key="v_adjustedPValue">1.44888124564345e-28</data>
    </node>
    <node id="n12">
      <data key="v_name">GO:0004536</data>
      <data key="v_description">deoxyribonuclease activity</data>
      <data key="v_database">molecular_function</data>
      <data key="v_pValue">1.88929749311218e-06</data>
      <data key="v_pp">2.25993266033764</data>
      <data key="v_size">58</data>
      <data key="v_nSignificant">0</data>
      <data key="v_setRank">0.000100277460154346</data>
      <data key="v_pSetRank">1</data>
      <data key="v_correctedPValue">0.00549626089690588</data>
      <data key="v_adjustedPValue">1.44888124564345e-28</data>
    </node>
    <node id="n13">
      <data key="v_name">GO:0004857</data>
      <data key="v_description">enzyme inhibitor activity</data>
      <data key="v_database">molecular_function</data>
      <data key="v_pValue">1.05844907970137e-09</data>
      <data key="v_pp">7.94411434152693</data>
      <data key="v_size">327</data>
      <data key="v_nSignificant">0</data>
      <data key="v_setRank">0.000123216624697607</data>
      <data key="v_pSetRank">1</data>
      <data key="v_correctedPValue">1.1373278094904e-08</data>
      <data key="v_adjustedPValue">1.44888124564345e-28</data>
    </node>
    <node id="n14">
      <data key="v_name">GO:0005080</data>
      <data key="v_description">protein kinase C binding</data>
      <data key="v_database">molecular_function</data>
      <data key="v_pValue">1.01135151874251e-08</data>
      <data key="v_pp">5.63522402923293</data>
      <data key="v_size">64</data>
      <data key="v_nSignificant">0</data>
      <data key="v_setRank">0.000111297444536003</data>
      <data key="v_pSetRank">1</data>
      <data key="v_correctedPValue">2.31619953861888e-06</data>
      <data key="v_adjustedPValue">1.44888124564345e-28</data>
    </node>
    <node id="n15">
      <data key="v_name">GO:0005126</data>
      <data key="v_description">cytokine receptor binding</data>
      <data key="v_database">molecular_function</data>
      <data key="v_pValue">1.85511278377621e-06</data>
      <data key="v_pp">4.01566490323479</data>
      <data key="v_size">220</data>
      <data key="v_nSignificant">0</data>
      <data key="v_setRank">0.000115835107679477</data>
      <data key="v_pSetRank">1</data>
      <data key="v_correctedPValue">9.64572990300671e-05</data>
      <data key="v_adjustedPValue">1.44888124564345e-28</data>
    </node>
    <node id="n16">
      <data key="v_name">GO:0005367</data>
      <data key="v_description">myo-inositol:sodium symporter activity</data>
      <data key="v_database">molecular_function</data>
      <data key="v_pValue">0.00823573453125859</data>
      <data key="v_pp">2.08429766077519</data>
      <data key="v_size">1</data>
      <data key="v_nSignificant">0</data>
      <data key="v_setRank">0.000100277460154346</data>
      <data key="v_pSetRank">1</data>
      <data key="v_correctedPValue">0.00823573453125859</data>
      <data key="v_adjustedPValue">0.0137975292796406</data>
    </node>
    <node id="n17">
      <data key="v_name">GO:0005516</data>
      <data key="v_description">calmodulin binding</data>
      <data key="v_database">molecular_function</data>
      <data key="v_pValue">4.48089264290916e-13</data>
      <data key="v_pp">8.00815965738668</data>
      <data key="v_size">180</data>
      <data key="v_nSignificant">0</data>
      <data key="v_setRank">0.000129095167662075</data>
      <data key="v_pSetRank">1</data>
      <data key="v_correctedPValue">9.81387094541221e-09</data>
      <data key="v_adjustedPValue">1.44888124564345e-28</data>
    </node>
    <node id="n18">
      <data key="v_name">GO:0005776</data>
      <data key="v_description">autophagosome</data>
      <data key="v_database">cellular_component</data>
      <data key="v_pValue">5.98273644105664e-11</data>
      <data key="v_pp">8.11939344278198</data>
      <data key="v_size">101</data>
      <data key="v_nSignificant">0</data>
      <data key="v_setRank">0.000162090249720957</data>
      <data key="v_pSetRank">1</data>
      <data key="v_correctedPValue">7.59637782298873e-09</data>
      <data key="v_adjustedPValue">1.44888124564345e-28</data>
    </node>
    <node id="n19">
      <data key="v_name">GO:0005778</data>
      <data key="v_description">peroxisomal membrane</data>
      <data key="v_database">cellular_component</data>
      <data key="v_pValue">8.94206727851185e-07</data>
      <data key="v_pp">3.7134164524362</data>
      <data key="v_size">56</data>
      <data key="v_nSignificant">0</data>
      <data key="v_setRank">0.000101941750892549</data>
      <data key="v_pSetRank">1</data>
      <data key="v_correctedPValue">0.000193456598568095</data>
      <data key="v_adjustedPValue">1.44888124564345e-28</data>
    </node>
    <node id="n20">
      <data key="v_name">GO:0005814</data>
      <data key="v_description">centriole</data>
      <data key="v_database">cellular_component</data>
      <data key="v_pValue">3.72094009493122e-07</data>
      <data key="v_pp">4.47580911068884</data>
      <data key="v_size">150</data>
      <data key="v_nSignificant">0</data>
      <data key="v_setRank">0.000116579086650973</data>
      <data key="v_pSetRank">1</data>
      <data key="v_correctedPValue">3.34341964027516e-05</data>
      <data key="v_adjustedPValue">1.44888124564345e-28</data>
    </node>
    <node id="n21">
      <data key="v_name">GO:0005819</data>
      <data key="v_description">spindle</data>
      <data key="v_database">cellular_component</data>
      <data key="v_pValue">7.99038747129997e-24</data>
      <data key="v_pp">19.0171831036615</data>
      <data key="v_size">396</data>
      <data key="v_nSignificant">0</data>
      <data key="v_setRank">0.000779780736509354</data>
      <data key="v_pSetRank">4.61516581734097e-07</data>
      <data key="v_correctedPValue">9.61206936791459e-20</data>
      <data key="v_adjustedPValue">1.44888124564345e-28</data>
    </node>
    <node id="n22">
      <data key="v_name">GO:0005911</data>
      <data key="v_description">cell-cell junction</data>
      <data key="v_database">cellular_component</data>
      <data key="v_pValue">3.21131134452463e-19</data>
      <data key="v_pp">14.8482255492258</data>
      <data key="v_size">472</data>
      <data key="v_nSignificant">0</data>
      <data key="v_setRank">0.000679565904568558</data>
      <data key="v_pSetRank">0.00476661400354417</data>
      <data key="v_correctedPValue">1.41832073077822e-15</data>
      <data key="v_adjustedPValue">1.44888124564345e-28</data>
    </node>
    <node id="n23">
      <data key="v_name">GO:0006260</data>
      <data key="v_description">DNA replication</data>
      <data key="v_database">biological_process</data>
      <data key="v_pValue">4.90325845116883e-18</data>
      <data key="v_pp">15.0687042364307</data>
      <data key="v_size">275</data>
      <data key="v_nSignificant">0</data>
      <data key="v_setRank">0.000297857967755736</data>
      <data key="v_pSetRank">1</data>
      <data key="v_correctedPValue">8.53681290801821e-16</data>
      <data key="v_adjustedPValue">1.44888124564345e-28</data>
    </node>
    <node id="n24">
      <data key="v_name">GO:0006334</data>
      <data key="v_description">nucleosome assembly</data>
      <data key="v_database">biological_process</data>
      <data key="v_pValue">3.92056608843237e-06</data>
      <data key="v_pp">2.11812998805689</data>
      <data key="v_size">95</data>
      <data key="v_nSignificant">0</data>
      <data key="v_setRank">0.000110591064923013</data>
      <data key="v_pSetRank">1</data>
      <data key="v_correctedPValue">0.00761850947385</data>
      <data key="v_adjustedPValue">1.44888124564345e-28</data>
    </node>
    <node id="n25">
      <data key="v_name">GO:0006352</data>
      <data key="v_description">DNA-templated transcription initiation</data>
      <data key="v_database">biological_process</data>
      <data key="v_pValue">8.35392013146773e-11</data>
      <data key="v_pp">7.94586810359928</data>
      <data key="v_size">123</data>
      <data key="v_nSignificant">0</data>
      <data key="v_setRank">0.000140625863950266</data>
      <data key="v_pSetRank">1</data>
      <data key="v_correctedPValue">1.13274432849658e-08</data>
      <data key="v_adjustedPValue">1.44888124564345e-28</data>
    </node>
    <node id="n26">
      <data key="v_name">GO:0006376</data>
      <data key="v_description">mRNA splice site selection</data>
      <data key="v_database">biological_process</data>
      <data key="v_pValue">8.56910548600647e-05</data>
      <data key="v_pp">4.06706451095512</data>
      <data key="v_size">27</data>
      <data key="v_nSignificant">0</data>
      <data key="v_setRank">0.000100277460154346</data>
      <data key="v_pSetRank">1</data>
      <data key="v_correctedPValue">8.56910548600647e-05</data>
      <data key="v_adjustedPValue">1.44888124564345e-28</data>
    </node>
    <node id="n27">
      <data key="v_name">GO:0006383</data>
      <data key="v_description">transcription by RNA polymerase III</data>
      <data key="v_database">biological_process</data>
      <data key="v_pValue">4.10951228429298e-07</data>
      <data key="v_pp">4.57036682685849</data>
      <data key="v_size">56</data>
      <data key="v_nSignificant">0</data>
      <data key="v_setRank">0.000112986700704325</data>
      <data key="v_pSetRank">1</data>
      <data key="v_correctedPValue">2.68926235874944e-05</data>
      <data key="v_adjustedPValue">1.44888124564345e-28</data>
    </node>
    <node id="n28">
      <data key="v_name">GO:0006397</data>
      <data key="v_description">mRNA processing</data>
      <data key="v_database">biological_process</data>
      <data key="v_pValue">2.40363639164062e-29</data>
      <data key="v_pp">27.394333903415</data>
      <data key="v_size">480</data>
      <data key="v_nSignificant">0</data>
      <data key="v_setRank">0.00168239662243565</data>
      <data key="v_pSetRank">2.99189561698448e-51</data>
      <data key="v_correctedPValue">4.03335173099768e-28</data>
      <data key="v_adjustedPValue">1.44888124564345e-28</data>
    </node>
    <node id="n29">
      <data key="v_name">GO:0006414</data>
      <data key="v_description">translational elongation</data>
      <data key="v_database">biological_process</data>
      <data key="v_pValue">5.89032904220706e-05</data>
      <data key="v_pp">4.55964559590365</data>
      <data key="v_size">73</data>
      <data key="v_nSignificant">0</data>
      <data key="v_setRank">0.000100277460154346</data>
      <data key="v_pSetRank">1</data>
      <data key="v_correctedPValue">2.75647719683486e-05</data>
      <data key="v_adjustedPValue">1.44888124564345e-28</data>
    </node>
    <node id="n30">
      <data key="v_name">GO:0006497</data>
      <data key="v_description">protein lipidation</data>
      <data key="v_database">biological_process</data>
      <data key="v_pValue">1.03593288586356e-06</data>
      <data key="v_pp">3.97439899018498</data>
      <data key="v_size">92</data>
      <data key="v_nSignificant">0</data>
      <data key="v_setRank">0.000124641320981954</data>
      <data key="v_pSetRank">1</data>
      <data key="v_correctedPValue">0.000106072061600413</data>
      <data key="v_adjustedPValue">1.44888124564345e-28</data>
    </node>
    <node id="n31">
      <data key="v_name">GO:0006626</data>
      <data key="v_description">protein targeting to mitochondrion</data>
      <data key="v_database">biological_process</data>
      <data key="v_pValue">6.74615591027271e-07</data>
      <data key="v_pp">4.67958906550734</data>
      <data key="v_size">73</data>
      <data key="v_nSignificant">0</data>
      <data key="v_setRank">0.000119340790669687</data>
      <data key="v_pSetRank">1</data>
      <data key="v_correctedPValue">2.09127398275188e-05</data>
      <data key="v_adjustedPValue">1.44888124564345e-28</data>
    </node>
    <node id="n32">
      <data key="v_name">GO:0006637</data>
      <data key="v_description">acyl-CoA metabolic process</data>
      <data key="v_database">biological_process</data>
      <data key="v_pValue">1.73751316627125e-06</data>
      <data key="v_pp">2.99659724231696</data>
      <data key="v_size">79</data>
      <data key="v_nSignificant">0</data>
      <data key="v_setRank">0.000107390244508696</data>
      <data key="v_pSetRank">1</data>
      <data key="v_correctedPValue">0.00100786591414154</data>
      <data key="v_adjustedPValue">1.44888124564345e-28</data>
    </node>
    <node id="n33">
      <data key="v_name">GO:0006694</data>
      <data key="v_description">steroid biosynthetic process</data>
      <data key="v_database">biological_process</data>
      <data key="v_pValue">9.10997971349508e-11</data>
      <data key="v_pp">8.73449678770957</data>
      <data key="v_size">141</data>
      <data key="v_nSignificant">0</data>
      <data key="v_setRank">0.000134320025123443</data>
      <data key="v_pSetRank">1</data>
      <data key="v_correctedPValue">1.84290612010808e-09</data>
      <data key="v_adjustedPValue">1.44888124564345e-28</data>
    </node>
    <node id="n34">
      <data key="v_name">GO:0006809</data>
      <data key="v_description">nitric oxide biosynthetic process</data>
      <data key="v_database">biological_process</data>
      <data key="v_pValue">7.13053052935395e-06</data>
      <data key="v_pp">3.10206220799923</data>
      <data key="v_size">79</data>
      <data key="v_nSignificant">0</data>
      <data key="v_setRank">0.000105971196254305</data>
      <data key="v_pSetRank">1</data>
      <data key="v_correctedPValue">0.000790565379927433</data>
      <data key="v_adjustedPValue">1.44888124564345e-28</data>
    </node>
    <node id="n35">
      <data key="v_name">GO:0006869</data>
      <data key="v_description">lipid transport</data>
      <data key="v_database">biological_process</data>
      <data key="v_pValue">8.6932339066104e-18</data>
      <data key="v_pp">13.3519366923542</data>
      <data key="v_size">386</data>
      <data key="v_nSignificant">0</data>
      <data key="v_setRank">0.000449191635357623</data>
      <data key="v_pSetRank">1</data>
      <data key="v_correctedPValue">4.44696086645213e-14</data>
      <data key="v_adjustedPValue">1.44888124564345e-28</data>
    </node>
    <node id="n36">
      <data key="v_name">GO:0006890</data>
      <data key="v_description">retrograde vesicle-mediated transport, Golgi to endoplasmic reticulum</data>
      <data key="v_database">biological_process</data>
      <data key="v_pValue">9.89261615192312e-10</data>
      <data key="v_pp">4.06417371454381</data>
      <data key="v_size">46</data>
      <data key="v_nSignificant">0</data>
      <data key="v_setRank">0.000112165938286214</data>
      <data key="v_pSetRank">1</data>
      <data key="v_correctedPValue">8.62633431830299e-05</data>
      <data key="v_adjustedPValue">1.44888124564345e-28</data>
    </node>
    <node id="n37">
      <data key="v_name">GO:0006936</data>
      <data key="v_description">muscle contraction</data>
      <data key="v_database">biological_process</data>
      <data key="v_pValue">1.96655868065599e-16</data>
      <data key="v_pp">11.6806276375044</data>
      <data key="v_size">276</data>
      <data key="v_nSignificant">0</data>
      <data key="v_setRank">0.000300639822777834</data>
      <data key="v_pSetRank">1</data>
      <data key="v_correctedPValue">2.08627888433716e-12</data>
      <data key="v_adjustedPValue">1.44888124564345e-28</data>
    </node>
    <node id="n38">
      <data key="v_name">GO:0006970</data>
      <data key="v_description">response to osmotic stress</data>
      <data key="v_database">biological_process</data>
      <data key="v_pValue">2.26719256523648e-05</data>
      <data key="v_pp">3.36070155239022</data>
      <data key="v_size">82</data>
      <data key="v_nSignificant">0</data>
      <data key="v_setRank">0.000100277460154346</data>
      <data key="v_pSetRank">1</data>
      <data key="v_correctedPValue">0.000435811260745981</data>
      <data key="v_adjustedPValue">1.44888124564345e-28</data>
    </node>
    <node id="n39">
      <data key="v_name">GO:0007030</data>
      <data key="v_description">Golgi organization</data>
      <data key="v_database">biological_process</data>
      <data key="v_pValue">3.94736270637742e-16</data>
      <data key="v_pp">10.0590533349604</data>
      <data key="v_size">140</data>
      <data key="v_nSignificant">0</data>
      <data key="v_setRank">0.000214146582196035</data>
      <data key="v_pSetRank">1</data>
      <data key="v_correctedPValue">8.72864166854398e-11</data>
      <data key="v_adjustedPValue">1.44888124564345e-28</data>
    </node>
    <node id="n40">
      <data key="v_name">GO:0007159</data>
      <data key="v_description">leukocyte cell-cell adhesion</data>
      <data key="v_database">biological_process</data>
      <data key="v_pValue">1.37142901358328e-17</data>
      <data key="v_pp">13.3691563930154</data>
      <data key="v_size">380</data>
      <data key="v_nSignificant">0</data>
      <data key="v_setRank">0.000541930272718171</data>
      <data key="v_pSetRank">1</data>
      <data key="v_correctedPValue">4.27408944958648e-14</data>
      <data key="v_adjustedPValue">1.44888124564345e-28</data>
    </node>
    <node id="n41">
      <data key="v_name">GO:0007163</data>
      <data key="v_description">establishment or maintenance of cell polarity</data>
      <data key="v_database">biological_process</data>
      <data key="v_pValue">1.73034832464376e-22</data>
      <data key="v_pp">14.0078898472942</data>
      <data key="v_size">229</data>
      <data key="v_nSignificant">0</data>
      <data key="v_setRank">0.000822616178886418</data>
      <data key="v_pSetRank">6.13966684467802e-09</data>
      <data key="v_correctedPValue">9.81996981201068e-15</data>
      <data key="v_adjustedPValue">1.44888124564345e-28</data>
    </node>
    <node id="n42">
      <data key="v_name">GO:0007219</data>
      <data key="v_description">Notch signaling pathway</data>
      <data key="v_database">biological_process</data>
      <data key="v_pValue">1.13486948650213e-09</data>
      <data key="v_pp">6.8852634258456</data>
      <data key="v_size">170</data>
      <data key="v_nSignificant">0</data>
      <data key="v_setRank">0.000145906195760218</data>
      <data key="v_pSetRank">1</data>
      <data key="v_correctedPValue">1.30237656873627e-07</data>
      <data key="v_adjustedPValue">1.44888124564345e-28</data>
    </node>
    <node id="n43">
      <data key="v_name">GO:0007292</data>
      <data key="v_description">female gamete generation</data>
      <data key="v_database">biological_process</data>
      <data key="v_pValue">1.93099049665115e-08</data>
      <data key="v_pp">3.97481670014576</data>
      <data key="v_size">139</data>
      <data key="v_nSignificant">0</data>
      <data key="v_setRank">0.000114150440552555</data>
      <data key="v_pSetRank">1</data>
      <data key="v_correctedPValue">0.000105970089188429</data>
      <data key="v_adjustedPValue">1.44888124564345e-28</data>
    </node>
    <node id="n44">
      <data key="v_name">GO:0007492</data>
      <data key="v_description">endoderm development</data>
      <data key="v_database">biological_process</data>
      <data key="v_pValue">5.06393550389225e-06</data>
      <data key="v_pp">3.30603839684102</data>
      <data key="v_size">68</data>
      <data key="v_nSignificant">0</data>
      <data key="v_setRank">0.000110345662618078</data>
      <data key="v_pSetRank">1</data>
      <data key="v_correctedPValue">0.000494266985925342</data>
      <data key="v_adjustedPValue">1.44888124564345e-28</data>
    </node>
    <node id="n45">
      <data key="v_name">GO:0007631</data>
      <data key="v_description">feeding behavior</data>
      <data key="v_database">biological_process</data>
      <data key="v_pValue">1.42877890506581e-05</data>
      <data key="v_pp">4.03359831729444</data>
      <data key="v_size">89</data>
      <data key="v_nSignificant">0</data>
      <data key="v_setRank">0.00010191661094533</data>
      <data key="v_pSetRank">1</data>
      <data key="v_correctedPValue">9.25553830882125e-05</data>
      <data key="v_adjustedPValue">1.44888124564345e-28</data>
    </node>
    <node id="n46">